<?xml version="1.0" encoding="UTF-8"?>

<!-- generated on 07/15/16 11:35:16 by SUMO netconvert Version 0.25.0
<?xml version="1.0" encoding="UTF-8"?>

<configuration xmlns:xsi="http://www.w3.org/2001/XMLSchema-instance" xsi:noNamespaceSchemaLocation="http://sumo.dlr.de/xsd/netconvertConfiguration.xsd">

    <input>
        <sumo-net-file value="D:\Coursework\Thesis\sumo-win32-0.25.0\sumo-0.25.0\DJProject\DJmap_v1.1.net.xml"/>
    </input>

    <output>
        <plain-output-prefix value="true"/>
    </output>

    <processing>
        <no-turnarounds value="true"/>
        <offset.disable-normalization value="true"/>
        <lefthand value="false"/>
        <junctions.corner-detail value="0"/>
    </processing>

</configuration>
-->

<tlLogics version="0.25" xmlns:xsi="http://www.w3.org/2001/XMLSchema-instance" xsi:noNamespaceSchemaLocation="http://sumo.dlr.de/xsd/tllogic_file.xsd">
    <tlLogic id="CB1" type="static" programID="0" offset="0">
        <phase duration="12" state="GGgrrGGG"/>
        <phase duration="20" state="yygrryyy"/>
        <phase duration="6" state="rrGrrrrr"/>
        <phase duration="20" state="rryrrrrr"/>
        <phase duration="12" state="rrrGGGrr"/>
        <phase duration="20" state="rrryyyrr"/>
    </tlLogic>
    <tlLogic id="CB2" type="static" programID="0" offset="0">
        <phase duration="12" state="GGgrrGGG"/>
        <phase duration="20" state="yygrryyy"/>
        <phase duration="6" state="rrGrrrrr"/>
        <phase duration="20" state="rryrrrrr"/>
        <phase duration="12" state="rrrGGGrr"/>
        <phase duration="20" state="rrryyyrr"/>
    </tlLogic>
    <tlLogic id="CB3" type="static" programID="0" offset="0">
        <phase duration="12" state="GGgrrGGG"/>
        <phase duration="20" state="yygrryyy"/>
        <phase duration="6" state="rrGrrrrr"/>
        <phase duration="20" state="rryrrrrr"/>
        <phase duration="12" state="rrrGGGrr"/>
        <phase duration="20" state="rrryyyrr"/>
    </tlLogic>
    <tlLogic id="CB4" type="static" programID="0" offset="0">
        <phase duration="12" state="GGgrrGGG"/>
        <phase duration="20" state="yygrryyy"/>
        <phase duration="6" state="rrGrrrrr"/>
        <phase duration="20" state="rryrrrrr"/>
        <phase duration="12" state="rrrGGGrr"/>
        <phase duration="20" state="rrryyyrr"/>
    </tlLogic>
    <tlLogic id="CB5" type="static" programID="0" offset="0">
        <phase duration="12" state="GGgrrGGG"/>
        <phase duration="20" state="yygrryyy"/>
        <phase duration="6" state="rrGrrrrr"/>
        <phase duration="20" state="rryrrrrr"/>
        <phase duration="12" state="rrrGGGrr"/>
        <phase duration="20" state="rrryyyrr"/>
    </tlLogic>
    <tlLogic id="CB6" type="static" programID="0" offset="0">
        <phase duration="12" state="GGgrrGGG"/>
        <phase duration="20" state="yygrryyy"/>
        <phase duration="6" state="rrGrrrrr"/>
        <phase duration="20" state="rryrrrrr"/>
        <phase duration="12" state="rrrGGGrr"/>
        <phase duration="20" state="rrryyyrr"/>
    </tlLogic>
    <tlLogic id="DD1" type="static" programID="0" offset="0">
        <phase duration="12" state="GGgrrGGG"/>
        <phase duration="20" state="yygrryyy"/>
        <phase duration="6" state="rrGrrrrr"/>
        <phase duration="20" state="rryrrrrr"/>
        <phase duration="12" state="rrrGGGrr"/>
        <phase duration="20" state="rrryyyrr"/>
    </tlLogic>
    <tlLogic id="DD10" type="static" programID="0" offset="0">
        <phase duration="12" state="GGgrrGGG"/>
        <phase duration="20" state="yygrryyy"/>
        <phase duration="6" state="rrGrrrrr"/>
        <phase duration="20" state="rryrrrrr"/>
        <phase duration="12" state="rrrGGGrr"/>
        <phase duration="20" state="rrryyyrr"/>
    </tlLogic>
    <tlLogic id="DD10_1" type="static" programID="0" offset="0">
        <phase duration="12" state="GGgrrGGG"/>
        <phase duration="20" state="yygrryyy"/>
        <phase duration="6" state="rrGrrrrr"/>
        <phase duration="20" state="rryrrrrr"/>
        <phase duration="12" state="rrrGGGrr"/>
        <phase duration="20" state="rrryyyrr"/>
    </tlLogic>
    <tlLogic id="DD11" type="static" programID="0" offset="0">
        <phase duration="31" state="GGGgrrrGGGgrrr"/>
        <phase duration="20" state="yyygrrryyygrrr"/>
        <phase duration="6" state="rrrGrrrrrrGrrr"/>
        <phase duration="20" state="rrryrrrrrryrrr"/>
        <phase duration="31" state="rrrrGGgrrrrGGg"/>
        <phase duration="20" state="rrrryygrrrryyg"/>
        <phase duration="6" state="rrrrrrGrrrrrrG"/>
        <phase duration="20" state="rrrrrryrrrrrry"/>
    </tlLogic>
    <tlLogic id="DD12" type="static" programID="0" offset="0">
        <phase duration="36" state="rrGGGGGg"/>
        <phase duration="4" state="rryyyyyg"/>
        <phase duration="6" state="rrrrrrrG"/>
        <phase duration="4" state="rrrrrrry"/>
        <phase duration="36" state="GGGrrrrr"/>
        <phase duration="4" state="yyyrrrrr"/>
    </tlLogic>
    <tlLogic id="DD14" type="static" programID="0" offset="0">
        <phase duration="31" state="GGGgrrrGGGgrrr"/>
        <phase duration="4" state="yyygrrryyygrrr"/>
        <phase duration="6" state="rrrGrrrrrrGrrr"/>
        <phase duration="4" state="rrryrrrrrryrrr"/>
        <phase duration="31" state="rrrrGGgrrrrGGg"/>
        <phase duration="4" state="rrrryygrrrryyg"/>
        <phase duration="6" state="rrrrrrGrrrrrrG"/>
        <phase duration="4" state="rrrrrryrrrrrry"/>
    </tlLogic>
    <tlLogic id="DD15" type="static" programID="0" offset="0">
        <phase duration="31" state="rrrGGGgrrrGGGg"/>
        <phase duration="20" state="rrryyygrrryyyg"/>
        <phase duration="6" state="rrrrrrGrrrrrrG"/>
        <phase duration="20" state="rrrrrryrrrrrry"/>
        <phase duration="31" state="GGgrrrrGGgrrrr"/>
        <phase duration="20" state="yygrrrryygrrrr"/>
        <phase duration="6" state="rrGrrrrrrGrrrr"/>
        <phase duration="20" state="rryrrrrrryrrrr"/>
    </tlLogic>
    <tlLogic id="DD17" type="static" programID="0" offset="0">
        <phase duration="12" state="GGGGGgrr"/>
        <phase duration="20" state="yyyyygrr"/>
        <phase duration="6" state="rrrrrGrr"/>
        <phase duration="20" state="rrrrryrr"/>
        <phase duration="12" state="GrrrrrGG"/>
        <phase duration="20" state="yrrrrryy"/>
    </tlLogic>
    <tlLogic id="DD18" type="static" programID="0" offset="0">
        <phase duration="31" state="rrrGGGgrrrGGGg"/>
        <phase duration="20" state="rrryyygrrryyyg"/>
        <phase duration="6" state="rrrrrrGrrrrrrG"/>
        <phase duration="20" state="rrrrrryrrrrrry"/>
        <phase duration="31" state="GGgrrrrGGgrrrr"/>
        <phase duration="20" state="yygrrrryygrrrr"/>
        <phase duration="6" state="rrGrrrrrrGrrrr"/>
        <phase duration="20" state="rryrrrrrryrrrr"/>
    </tlLogic>
    <tlLogic id="DD3" type="static" programID="0" offset="0">
        <phase duration="31" state="GGGgrrrGGGgrrr"/>
        <phase duration="20" state="yyygrrryyygrrr"/>
        <phase duration="6" state="rrrGrrrrrrGrrr"/>
        <phase duration="20" state="rrryrrrrrryrrr"/>
        <phase duration="31" state="rrrrGGgrrrrGGg"/>
        <phase duration="20" state="rrrryygrrrryyg"/>
        <phase duration="6" state="rrrrrrGrrrrrrG"/>
        <phase duration="20" state="rrrrrryrrrrrry"/>
    </tlLogic>
    <tlLogic id="DD4" type="static" programID="0" offset="0">
        <phase duration="31" state="rrrGGGgrrrGGGg"/>
        <phase duration="20" state="rrryyygrrryyyg"/>
        <phase duration="6" state="rrrrrrGrrrrrrG"/>
        <phase duration="20" state="rrrrrryrrrrrry"/>
        <phase duration="31" state="GGgrrrrGGgrrrr"/>
        <phase duration="20" state="yygrrrryygrrrr"/>
        <phase duration="6" state="rrGrrrrrrGrrrr"/>
        <phase duration="20" state="rryrrrrrryrrrr"/>
    </tlLogic>
    <tlLogic id="DD9" type="static" programID="0" offset="0">
        <phase duration="12" state="GGGGGgrr"/>
        <phase duration="20" state="yyyyygrr"/>
        <phase duration="6" state="rrrrrGrr"/>
        <phase duration="20" state="rrrrryrr"/>
        <phase duration="12" state="GrrrrrGG"/>
        <phase duration="20" state="yrrrrryy"/>
    </tlLogic>
    <tlLogic id="DH1" type="static" programID="0" offset="0">
        <phase duration="31" state="GGgrrrrGGgrrr"/>
        <phase duration="20" state="yygrrrryygrrr"/>
        <phase duration="6" state="rrGrrrrrrGrrr"/>
        <phase duration="20" state="rryrrrrrryrrr"/>
        <phase duration="31" state="rrrGGGgrrrGGg"/>
        <phase duration="20" state="rrryyygrrryyg"/>
        <phase duration="6" state="rrrrrrGrrrrrG"/>
        <phase duration="20" state="rrrrrryrrrrry"/>
    </tlLogic>
    <tlLogic id="DH14" type="static" programID="0" offset="0">
        <phase duration="12" state="GGGGGgrr"/>
        <phase duration="20" state="yyyyygrr"/>
        <phase duration="6" state="rrrrrGrr"/>
        <phase duration="20" state="rrrrryrr"/>
        <phase duration="12" state="GrrrrrGG"/>
        <phase duration="20" state="yrrrrryy"/>
    </tlLogic>
    <tlLogic id="DH2" type="static" programID="0" offset="0">
        <phase duration="36" state="GGGGGgrr"/>
        <phase duration="4" state="yyyyygrr"/>
        <phase duration="6" state="rrrrrGrr"/>
        <phase duration="4" state="rrrrryrr"/>
        <phase duration="36" state="GrrrrrGG"/>
        <phase duration="4" state="yrrrrryy"/>
    </tlLogic>
    <tlLogic id="DH3" type="static" programID="0" offset="0">
        <phase duration="12" state="rrGGGGGg"/>
        <phase duration="20" state="rryyyyyg"/>
        <phase duration="6" state="rrrrrrrG"/>
        <phase duration="20" state="rrrrrrry"/>
        <phase duration="12" state="GGGrrrrr"/>
        <phase duration="20" state="yyyrrrrr"/>
    </tlLogic>
    <tlLogic id="DH4" type="static" programID="0" offset="0">
        <phase duration="12" state="GGGGGgrr"/>
        <phase duration="20" state="yyyyygrr"/>
        <phase duration="6" state="rrrrrGrr"/>
        <phase duration="20" state="rrrrryrr"/>
        <phase duration="12" state="GrrrrrGG"/>
        <phase duration="20" state="yrrrrryy"/>
    </tlLogic>
    <tlLogic id="DH5" type="static" programID="0" offset="0">
        <phase duration="31" state="GGGgrrrGGGgrrr"/>
        <phase duration="20" state="yyygrrryyygrrr"/>
        <phase duration="6" state="rrrGrrrrrrGrrr"/>
        <phase duration="20" state="rrryrrrrrryrrr"/>
        <phase duration="31" state="rrrrGGgrrrrGGg"/>
        <phase duration="20" state="rrrryygrrrryyg"/>
        <phase duration="6" state="rrrrrrGrrrrrrG"/>
        <phase duration="20" state="rrrrrryrrrrrry"/>
    </tlLogic>
    <tlLogic id="DH6" type="static" programID="0" offset="0">
        <phase duration="12" state="GGGGGgrr"/>
        <phase duration="20" state="yyyyygrr"/>
        <phase duration="6" state="rrrrrGrr"/>
        <phase duration="20" state="rrrrryrr"/>
        <phase duration="12" state="GrrrrrGG"/>
        <phase duration="20" state="yrrrrryy"/>
    </tlLogic>
    <tlLogic id="DH7" type="static" programID="0" offset="0">
        <phase duration="12" state="GGGGGgrr"/>
        <phase duration="20" state="yyyyygrr"/>
        <phase duration="6" state="rrrrrGrr"/>
        <phase duration="20" state="rrrrryrr"/>
        <phase duration="12" state="GrrrrrGG"/>
        <phase duration="20" state="yrrrrryy"/>
    </tlLogic>
    <tlLogic id="DH8" type="static" programID="0" offset="0">
        <phase duration="12" state="GGGGGgrr"/>
        <phase duration="20" state="yyyyygrr"/>
        <phase duration="6" state="rrrrrGrr"/>
        <phase duration="20" state="rrrrryrr"/>
        <phase duration="12" state="GrrrrrGG"/>
        <phase duration="20" state="yrrrrryy"/>
    </tlLogic>
    <tlLogic id="DH9" type="static" programID="0" offset="0">
        <phase duration="31" state="GGGgrrrGGGgrrr"/>
        <phase duration="20" state="yyygrrryyygrrr"/>
        <phase duration="6" state="rrrGrrrrrrGrrr"/>
        <phase duration="20" state="rrryrrrrrryrrr"/>
        <phase duration="31" state="rrrrGGgrrrrGGg"/>
        <phase duration="20" state="rrrryygrrrryyg"/>
        <phase duration="6" state="rrrrrrGrrrrrrG"/>
        <phase duration="20" state="rrrrrryrrrrrry"/>
    </tlLogic>
    <tlLogic id="DS2" type="static" programID="0" offset="0">
        <phase duration="12" state="GGgrrGGG"/>
        <phase duration="20" state="yygrryyy"/>
        <phase duration="6" state="rrGrrrrr"/>
        <phase duration="20" state="rryrrrrr"/>
        <phase duration="12" state="rrrGGGrr"/>
        <phase duration="20" state="rrryyyrr"/>
    </tlLogic>
    <tlLogic id="DS4" type="static" programID="0" offset="0">
        <phase duration="12" state="rrGGGGGg"/>
        <phase duration="20" state="rryyyyyg"/>
        <phase duration="6" state="rrrrrrrG"/>
        <phase duration="20" state="rrrrrrry"/>
        <phase duration="12" state="GGGrrrrr"/>
        <phase duration="20" state="yyyrrrrr"/>
    </tlLogic>
    <tlLogic id="DS5" type="static" programID="0" offset="0">
        <phase duration="31" state="rrrGGGgrrrGGGg"/>
        <phase duration="20" state="rrryyygrrryyyg"/>
        <phase duration="6" state="rrrrrrGrrrrrrG"/>
        <phase duration="20" state="rrrrrryrrrrrry"/>
        <phase duration="31" state="GGgrrrrGGgrrrr"/>
        <phase duration="20" state="yygrrrryygrrrr"/>
        <phase duration="6" state="rrGrrrrrrGrrrr"/>
        <phase duration="20" state="rryrrrrrryrrrr"/>
    </tlLogic>
    <tlLogic id="DS6" type="static" programID="0" offset="0">
        <phase duration="12" state="GGgrrGGG"/>
        <phase duration="20" state="yygrryyy"/>
        <phase duration="6" state="rrGrrrrr"/>
        <phase duration="20" state="rryrrrrr"/>
        <phase duration="12" state="rrrGGGrr"/>
        <phase duration="20" state="rrryyyrr"/>
    </tlLogic>
    <tlLogic id="EXP1" type="static" programID="0" offset="0">
        <phase duration="12" state="GGGGgGr"/>
        <phase duration="20" state="yyyygyr"/>
        <phase duration="6" state="rrrrGrr"/>
        <phase duration="20" state="rrrryrr"/>
        <phase duration="12" state="GrrrrGG"/>
        <phase duration="20" state="yrrrryy"/>
    </tlLogic>
    <tlLogic id="EXP2" type="static" programID="0" offset="0">
        <phase duration="12" state="GGgrrGGG"/>
        <phase duration="20" state="yygrryyy"/>
        <phase duration="6" state="rrGrrrrr"/>
        <phase duration="20" state="rryrrrrr"/>
        <phase duration="12" state="rrrGGGrr"/>
        <phase duration="20" state="rrryyyrr"/>
    </tlLogic>
    <tlLogic id="EXP3" type="static" programID="0" offset="0">
        <phase duration="12" state="GGgrrGGG"/>
        <phase duration="20" state="yygrryyy"/>
        <phase duration="6" state="rrGrrrrr"/>
        <phase duration="20" state="rryrrrrr"/>
        <phase duration="12" state="rrrGGGrr"/>
        <phase duration="20" state="rrryyyrr"/>
    </tlLogic>
    <tlLogic id="EXP4" type="static" programID="0" offset="0">
        <phase duration="12" state="rrGGGGGg"/>
        <phase duration="20" state="rryyyyyg"/>
        <phase duration="6" state="rrrrrrrG"/>
        <phase duration="20" state="rrrrrrry"/>
        <phase duration="12" state="GGGrrrrr"/>
        <phase duration="20" state="yyyrrrrr"/>
    </tlLogic>
    <tlLogic id="GJ1" type="static" programID="0" offset="0">
        <phase duration="31" state="rrrGGGgrrrGGGg"/>
        <phase duration="20" state="rrryyygrrryyyg"/>
        <phase duration="6" state="rrrrrrGrrrrrrG"/>
        <phase duration="20" state="rrrrrryrrrrrry"/>
        <phase duration="31" state="GGgrrrrGGgrrrr"/>
        <phase duration="20" state="yygrrrryygrrrr"/>
        <phase duration="6" state="rrGrrrrrrGrrrr"/>
        <phase duration="20" state="rryrrrrrryrrrr"/>
    </tlLogic>
    <tlLogic id="GJ10" type="static" programID="0" offset="0">
        <phase duration="12" state="GGgrrGGG"/>
        <phase duration="20" state="yygrryyy"/>
        <phase duration="6" state="rrGrrrrr"/>
        <phase duration="20" state="rryrrrrr"/>
        <phase duration="12" state="rrrGGGrr"/>
        <phase duration="20" state="rrryyyrr"/>
    </tlLogic>
    <tlLogic id="GJ11" type="static" programID="0" offset="0">
        <phase duration="12" state="GGGGGgrr"/>
        <phase duration="20" state="yyyyygrr"/>
        <phase duration="6" state="rrrrrGrr"/>
        <phase duration="20" state="rrrrryrr"/>
        <phase duration="12" state="GrrrrrGG"/>
        <phase duration="20" state="yrrrrryy"/>
    </tlLogic>
    <tlLogic id="GJ12" type="static" programID="0" offset="0">
        <phase duration="12" state="GGgrrGGG"/>
        <phase duration="20" state="yygrryyy"/>
        <phase duration="6" state="rrGrrrrr"/>
        <phase duration="20" state="rryrrrrr"/>
        <phase duration="12" state="rrrGGGrr"/>
        <phase duration="20" state="rrryyyrr"/>
    </tlLogic>
    <tlLogic id="GJ13" type="static" programID="0" offset="0">
        <phase duration="12" state="GGGGGgrr"/>
        <phase duration="20" state="yyyyygrr"/>
        <phase duration="6" state="rrrrrGrr"/>
        <phase duration="20" state="rrrrryrr"/>
        <phase duration="12" state="GrrrrrGG"/>
        <phase duration="20" state="yrrrrryy"/>
    </tlLogic>
    <tlLogic id="GJ14" type="static" programID="0" offset="0">
        <phase duration="12" state="GGgrrGGG"/>
        <phase duration="20" state="yygrryyy"/>
        <phase duration="6" state="rrGrrrrr"/>
        <phase duration="20" state="rryrrrrr"/>
        <phase duration="12" state="rrrGGGrr"/>
        <phase duration="20" state="rrryyyrr"/>
    </tlLogic>
    <tlLogic id="GJ19" type="static" programID="0" offset="0">
        <phase duration="31" state="GGgrrrrGGgrrrr"/>
        <phase duration="20" state="yygrrrryygrrrr"/>
        <phase duration="6" state="rrGrrrrrrGrrrr"/>
        <phase duration="20" state="rryrrrrrryrrrr"/>
        <phase duration="31" state="rrrGGGgrrrGGGg"/>
        <phase duration="20" state="rrryyygrrryyyg"/>
        <phase duration="6" state="rrrrrrGrrrrrrG"/>
        <phase duration="20" state="rrrrrryrrrrrry"/>
    </tlLogic>
    <tlLogic id="GJ2" type="static" programID="0" offset="0">
        <phase duration="31" state="rrrGGGgrrrGGGg"/>
        <phase duration="20" state="rrryyygrrryyyg"/>
        <phase duration="6" state="rrrrrrGrrrrrrG"/>
        <phase duration="20" state="rrrrrryrrrrrry"/>
        <phase duration="31" state="GGgrrrrGGgrrrr"/>
        <phase duration="20" state="yygrrrryygrrrr"/>
        <phase duration="6" state="rrGrrrrrrGrrrr"/>
        <phase duration="20" state="rryrrrrrryrrrr"/>
    </tlLogic>
    <tlLogic id="GJ5" type="static" programID="0" offset="0">
        <phase duration="12" state="GGGGGgrr"/>
        <phase duration="20" state="yyyyygrr"/>
        <phase duration="6" state="rrrrrGrr"/>
        <phase duration="20" state="rrrrryrr"/>
        <phase duration="12" state="GrrrrrGG"/>
        <phase duration="20" state="yrrrrryy"/>
    </tlLogic>
    <tlLogic id="GJN2" type="static" programID="0" offset="0">
        <phase duration="12" state="rrGGGGGg"/>
        <phase duration="20" state="rryyyyyg"/>
        <phase duration="6" state="rrrrrrrG"/>
        <phase duration="20" state="rrrrrrry"/>
        <phase duration="12" state="GGGrrrrr"/>
        <phase duration="20" state="yyyrrrrr"/>
    </tlLogic>
    <tlLogic id="GJN3" type="static" programID="0" offset="0">
        <phase duration="12" state="rrGGGGGg"/>
        <phase duration="20" state="rryyyyyg"/>
        <phase duration="6" state="rrrrrrrG"/>
        <phase duration="20" state="rrrrrrry"/>
        <phase duration="12" state="GGGrrrrr"/>
        <phase duration="20" state="yyyrrrrr"/>
    </tlLogic>
    <tlLogic id="MJ1" type="static" programID="0" offset="0">
        <phase duration="12" state="GGgGrGG"/>
        <phase duration="20" state="yygyryy"/>
        <phase duration="6" state="rrGrrrr"/>
        <phase duration="20" state="rryrrrr"/>
        <phase duration="12" state="rrrGGGr"/>
        <phase duration="20" state="rrryyyr"/>
    </tlLogic>
    <tlLogic id="MJ2" type="static" programID="0" offset="0">
        <phase duration="12" state="GGgrrGGG"/>
        <phase duration="20" state="yygrryyy"/>
        <phase duration="6" state="rrGrrrrr"/>
        <phase duration="20" state="rryrrrrr"/>
        <phase duration="12" state="rrrGGGrr"/>
        <phase duration="20" state="rrryyyrr"/>
    </tlLogic>
    <tlLogic id="SC1" type="static" programID="0" offset="0">
        <phase duration="12" state="GGgrrGGG"/>
        <phase duration="20" state="yygrryyy"/>
        <phase duration="6" state="rrGrrrrr"/>
        <phase duration="20" state="rryrrrrr"/>
        <phase duration="12" state="rrrGGGrr"/>
        <phase duration="20" state="rrryyyrr"/>
    </tlLogic>
    <tlLogic id="SC2" type="static" programID="0" offset="0">
        <phase duration="12" state="GGgrrGGG"/>
        <phase duration="20" state="yygrryyy"/>
        <phase duration="6" state="rrGrrrrr"/>
        <phase duration="20" state="rryrrrrr"/>
        <phase duration="12" state="rrrGGGrr"/>
        <phase duration="20" state="rrryyyrr"/>
    </tlLogic>
    <tlLogic id="SC3" type="static" programID="0" offset="0">
        <phase duration="12" state="rrGGGGGg"/>
        <phase duration="20" state="rryyyyyg"/>
        <phase duration="6" state="rrrrrrrG"/>
        <phase duration="20" state="rrrrrrry"/>
        <phase duration="12" state="GGGrrrrr"/>
        <phase duration="20" state="yyyrrrrr"/>
    </tlLogic>
    <tlLogic id="SC4" type="static" programID="0" offset="0">
        <phase duration="12" state="rrGGGGGg"/>
        <phase duration="20" state="rryyyyyg"/>
        <phase duration="6" state="rrrrrrrG"/>
        <phase duration="20" state="rrrrrrry"/>
        <phase duration="12" state="GGGrrrrr"/>
        <phase duration="20" state="yyyrrrrr"/>
    </tlLogic>
    <tlLogic id="SC5" type="static" programID="0" offset="0">
        <phase duration="31" state="rrrGGGgrrrGGGg"/>
        <phase duration="20" state="rrryyygrrryyyg"/>
        <phase duration="6" state="rrrrrrGrrrrrrG"/>
        <phase duration="20" state="rrrrrryrrrrrry"/>
        <phase duration="31" state="GGgrrrrGGgrrrr"/>
        <phase duration="20" state="yygrrrryygrrrr"/>
        <phase duration="6" state="rrGrrrrrrGrrrr"/>
        <phase duration="20" state="rryrrrrrryrrrr"/>
    </tlLogic>
    <tlLogic id="SC8" type="static" programID="0" offset="0">
        <phase duration="12" state="GGGGGgrr"/>
        <phase duration="20" state="yyyyygrr"/>
        <phase duration="6" state="rrrrrGrr"/>
        <phase duration="20" state="rrrrryrr"/>
        <phase duration="12" state="GrrrrrGG"/>
        <phase duration="20" state="yrrrrryy"/>
    </tlLogic>
    <tlLogic id="WP3" type="static" programID="0" offset="0">
        <phase duration="31" state="GGGgrrrGGGgrrr"/>
        <phase duration="20" state="yyygrrryyygrrr"/>
        <phase duration="6" state="rrrGrrrrrrGrrr"/>
        <phase duration="20" state="rrryrrrrrryrrr"/>
        <phase duration="31" state="rrrrGGgrrrrGGg"/>
        <phase duration="20" state="rrrryygrrrryyg"/>
        <phase duration="6" state="rrrrrrGrrrrrrG"/>
        <phase duration="20" state="rrrrrryrrrrrry"/>
    </tlLogic>
    <tlLogic id="YS1" type="static" programID="0" offset="0">
        <phase duration="31" state="GGggrrrrrrGGGG"/>
        <phase duration="20" state="yyggrrrrrryyyy"/>
        <phase duration="6" state="rrGGrrrrrrrrrr"/>
        <phase duration="20" state="rryyrrrrrrrrrr"/>
        <phase duration="31" state="rrrrGGGGggrrrr"/>
        <phase duration="20" state="rrrryyyyggrrrr"/>
        <phase duration="6" state="rrrrrrrrGGrrrr"/>
        <phase duration="20" state="rrrrrrrryyrrrr"/>
    </tlLogic>
    <tlLogic id="YS2" type="static" programID="0" offset="0">
        <phase duration="12" state="GGgrrGGG"/>
        <phase duration="20" state="yygrryyy"/>
        <phase duration="6" state="rrGrrrrr"/>
        <phase duration="20" state="rryrrrrr"/>
        <phase duration="12" state="rrrGGGrr"/>
        <phase duration="20" state="rrryyyrr"/>
    </tlLogic>
    <tlLogic id="YS3" type="static" programID="0" offset="0">
        <phase duration="31" state="rrrGGGgrrrGGGg"/>
        <phase duration="20" state="rrryyygrrryyyg"/>
        <phase duration="6" state="rrrrrrGrrrrrrG"/>
        <phase duration="20" state="rrrrrryrrrrrry"/>
        <phase duration="31" state="GGgrrrrGGgrrrr"/>
        <phase duration="20" state="yygrrrryygrrrr"/>
        <phase duration="6" state="rrGrrrrrrGrrrr"/>
        <phase duration="20" state="rryrrrrrryrrrr"/>
    </tlLogic>

    <connection from="GJN0" to="gneE181" fromLane="0" toLane="0" tl="GJN2" linkIndex="5"/>
    <connection from="GJN0" to="gneE181" fromLane="1" toLane="1" tl="GJN2" linkIndex="6"/>
    <connection from="GJN0" to="gneE186" fromLane="1" toLane="0" tl="GJN2" linkIndex="7"/>
    <connection from="gneE11" to="gneE125" fromLane="0" toLane="0" tl="GJ5" linkIndex="0"/>
    <connection from="gneE11" to="gneE9" fromLane="0" toLane="0" tl="GJ5" linkIndex="1"/>
    <connection from="gneE11" to="gneE9" fromLane="1" toLane="1" tl="GJ5" linkIndex="2"/>
    <connection from="gneE124" to="gneE9" fromLane="0" toLane="0" tl="GJ5" linkIndex="6"/>
    <connection from="gneE124" to="gneE10" fromLane="0" toLane="1" tl="GJ5" linkIndex="7"/>
    <connection from="gneE130" to="gneE53" fromLane="0" toLane="0" tl="GJ2" linkIndex="10"/>
    <connection from="gneE130" to="gneE4" fromLane="0" toLane="0" tl="GJ2" linkIndex="11"/>
    <connection from="gneE130" to="gneE4" fromLane="1" toLane="1" tl="GJ2" linkIndex="12"/>
    <connection from="gneE130" to="gneE54" fromLane="1" toLane="0" tl="GJ2" linkIndex="13"/>
    <connection from="gneE131" to="gneE42" fromLane="0" toLane="0" tl="GJ1" linkIndex="3"/>
    <connection from="gneE131" to="gneE48" fromLane="0" toLane="0" tl="GJ1" linkIndex="4"/>
    <connection from="gneE131" to="gneE48" fromLane="1" toLane="1" tl="GJ1" linkIndex="5"/>
    <connection from="gneE131" to="gneE132" fromLane="1" toLane="1" tl="GJ1" linkIndex="6"/>
    <connection from="gneE132" to="gneE50" fromLane="0" toLane="0" tl="YS3" linkIndex="10"/>
    <connection from="gneE132" to="gneE46" fromLane="0" toLane="0" tl="YS3" linkIndex="11"/>
    <connection from="gneE132" to="gneE46" fromLane="1" toLane="1" tl="YS3" linkIndex="12"/>
    <connection from="gneE132" to="gneE52" fromLane="1" toLane="0" tl="YS3" linkIndex="13"/>
    <connection from="gneE133" to="gneE130" fromLane="0" toLane="0" tl="GJ1" linkIndex="7"/>
    <connection from="gneE133" to="gneE42" fromLane="1" toLane="1" tl="GJ1" linkIndex="8"/>
    <connection from="gneE133" to="gneE48" fromLane="1" toLane="1" tl="GJ1" linkIndex="9"/>
    <connection from="gneE136" to="gneE152" fromLane="0" toLane="0" tl="SC2" linkIndex="5"/>
    <connection from="gneE136" to="gneE138" fromLane="0" toLane="0" tl="SC2" linkIndex="6"/>
    <connection from="gneE136" to="gneE138" fromLane="1" toLane="1" tl="SC2" linkIndex="7"/>
    <connection from="gneE137" to="gneE514" fromLane="0" toLane="0" tl="SC1" linkIndex="0"/>
    <connection from="gneE137" to="gneE514" fromLane="1" toLane="1" tl="SC1" linkIndex="1"/>
    <connection from="gneE137" to="gneE150" fromLane="1" toLane="0" tl="SC1" linkIndex="2"/>
    <connection from="gneE138" to="gneE140" fromLane="0" toLane="0" tl="SC3" linkIndex="5"/>
    <connection from="gneE138" to="gneE140" fromLane="1" toLane="1" tl="SC3" linkIndex="6"/>
    <connection from="gneE138" to="gneE158" fromLane="1" toLane="0" tl="SC3" linkIndex="7"/>
    <connection from="gneE139" to="gneE137" fromLane="0" toLane="0" tl="SC2" linkIndex="0"/>
    <connection from="gneE139" to="gneE137" fromLane="1" toLane="1" tl="SC2" linkIndex="1"/>
    <connection from="gneE139" to="gneE152" fromLane="1" toLane="0" tl="SC2" linkIndex="2"/>
    <connection from="gneE140" to="gneE142" fromLane="0" toLane="0" tl="SC4" linkIndex="5"/>
    <connection from="gneE140" to="gneE142" fromLane="1" toLane="1" tl="SC4" linkIndex="6"/>
    <connection from="gneE140" to="gneE585" fromLane="1" toLane="0" tl="SC4" linkIndex="7"/>
    <connection from="gneE141" to="gneE158" fromLane="0" toLane="0" tl="SC3" linkIndex="2"/>
    <connection from="gneE141" to="gneE139" fromLane="0" toLane="0" tl="SC3" linkIndex="3"/>
    <connection from="gneE141" to="gneE139" fromLane="1" toLane="1" tl="SC3" linkIndex="4"/>
    <connection from="gneE142" to="gneE652" fromLane="0" toLane="0" tl="SC5" linkIndex="10"/>
    <connection from="gneE142" to="gneE144" fromLane="0" toLane="0" tl="SC5" linkIndex="11"/>
    <connection from="gneE142" to="gneE144" fromLane="1" toLane="1" tl="SC5" linkIndex="12"/>
    <connection from="gneE142" to="gneE658" fromLane="1" toLane="0" tl="SC5" linkIndex="13"/>
    <connection from="gneE143" to="gneE585" fromLane="0" toLane="0" tl="SC4" linkIndex="2"/>
    <connection from="gneE143" to="gneE141" fromLane="0" toLane="0" tl="SC4" linkIndex="3"/>
    <connection from="gneE143" to="gneE141" fromLane="1" toLane="1" tl="SC4" linkIndex="4"/>
    <connection from="gneE145" to="gneE658" fromLane="0" toLane="0" tl="SC5" linkIndex="3"/>
    <connection from="gneE145" to="gneE143" fromLane="0" toLane="0" tl="SC5" linkIndex="4"/>
    <connection from="gneE145" to="gneE143" fromLane="1" toLane="1" tl="SC5" linkIndex="5"/>
    <connection from="gneE145" to="gneE652" fromLane="1" toLane="0" tl="SC5" linkIndex="6"/>
    <connection from="gneE148" to="gneE201" fromLane="0" toLane="0" tl="SC8" linkIndex="6"/>
    <connection from="gneE148" to="gneE202" fromLane="1" toLane="1" tl="SC8" linkIndex="7"/>
    <connection from="gneE151" to="gneE136" fromLane="0" toLane="0" tl="SC1" linkIndex="3"/>
    <connection from="gneE151" to="gneE514" fromLane="0" toLane="1" tl="SC1" linkIndex="4"/>