<?xml version="1.0" encoding="UTF-8"?>

<!-- generated on 07/15/16 11:35:16 by SUMO netconvert Version 0.25.0
<?xml version="1.0" encoding="UTF-8"?>

<configuration xmlns:xsi="http://www.w3.org/2001/XMLSchema-instance" xsi:noNamespaceSchemaLocation="http://sumo.dlr.de/xsd/netconvertConfiguration.xsd">

    <input>
        <sumo-net-file value="D:\Coursework\Thesis\sumo-win32-0.25.0\sumo-0.25.0\DJProject\DJmap_v1.1.net.xml"/>
    </input>

    <output>
        <plain-output-prefix value="true"/>
    </output>

    <processing>
        <no-turnarounds value="true"/>
        <offset.disable-normalization value="true"/>
        <lefthand value="false"/>
        <junctions.corner-detail value="0"/>
    </processing>

</configuration>
-->

<edges version="0.25" xmlns:xsi="http://www.w3.org/2001/XMLSchema-instance" xsi:noNamespaceSchemaLocation="http://sumo.dlr.de/xsd/edges_file.xsd">
    <edge id="DD15" from="DD15" to="DS3" priority="1" numLanes="2" speed="60.00"/>
    <edge id="E_KCRC" from="GJ9" to="E_KCRC" priority="1" numLanes="1" speed="13.89"/>
    <edge id="GJN0" from="GJN1" to="GJN2" priority="1" numLanes="2" speed="60.00"/>
    <edge id="JJ1" from="JJ1" to="E_KETR" priority="1" numLanes="1" speed="13.89"/>
    <edge id="gneE10" from="GJ5" to="GJ6" priority="1" numLanes="2" speed="60.00"/>
    <edge id="gneE100" from="SN3" to="SN4" priority="1" numLanes="1" speed="13.89"/>
    <edge id="gneE101" from="SN4" to="SN3" priority="1" numLanes="1" speed="13.89"/>
    <edge id="gneE102" from="SN4" to="SS11" priority="1" numLanes="1" speed="13.89"/>
    <edge id="gneE103" from="SS11" to="SN4" priority="1" numLanes="1" speed="13.89"/>
    <edge id="gneE106" from="SS11" to="SS9" priority="1" numLanes="1" speed="13.89"/>
    <edge id="gneE107" from="SS9" to="SS11" priority="1" numLanes="1" speed="13.89"/>
    <edge id="gneE108" from="SS9" to="E_KSE" priority="1" numLanes="1" speed="13.89"/>
    <edge id="gneE109" from="E_KSE" to="SS9" priority="1" numLanes="1" speed="13.89"/>
    <edge id="gneE11" from="GJ6" to="GJ5" priority="1" numLanes="2" speed="60.00"/>
    <edge id="gneE110" from="SS9" to="SS6" priority="1" numLanes="1" speed="13.89"/>
    <edge id="gneE111" from="SS6" to="SS9" priority="1" numLanes="1" speed="13.89"/>
    <edge id="gneE112" from="SS11" to="SS10" priority="1" numLanes="1" speed="13.89"/>
    <edge id="gneE113" from="SS10" to="SS11" priority="1" numLanes="1" speed="13.89"/>
    <edge id="gneE114" from="SS10" to="SS7" priority="1" numLanes="1" speed="13.89"/>
    <edge id="gneE115" from="SS7" to="SS10" priority="1" numLanes="1" speed="13.89"/>
    <edge id="gneE116" from="SS10" to="E_AGI" priority="1" numLanes="1" speed="13.89"/>
    <edge id="gneE117" from="E_AGI" to="SS10" priority="1" numLanes="1" speed="13.89"/>
    <edge id="gneE120" from="GJ6" to="E_HCMR" priority="1" numLanes="1" speed="13.89"/>
    <edge id="gneE121" from="E_HCMR" to="GJ6" priority="1" numLanes="1" speed="13.89"/>
    <edge id="gneE122" from="SN5" to="SN6" priority="1" numLanes="1" speed="13.89"/>
    <edge id="gneE123" from="SN6" to="SN5" priority="1" numLanes="1" speed="13.89"/>
    <edge id="gneE124" from="SN6" to="GJ5" priority="1" numLanes="1" speed="13.89"/>
    <edge id="gneE125" from="GJ5" to="SN6" priority="1" numLanes="1" speed="13.89"/>
    <edge id="gneE126" from="SN6" to="E_DRA2" priority="1" numLanes="1" speed="13.89"/>
    <edge id="gneE127" from="E_DRA2" to="SN6" priority="1" numLanes="1" speed="13.89"/>
    <edge id="gneE128" from="SN6" to="E_DRA" priority="1" numLanes="1" speed="13.89"/>
    <edge id="gneE129" from="E_DRA" to="SN6" priority="1" numLanes="1" speed="13.89"/>
    <edge id="gneE130" from="GJ1" to="GJ2" priority="1" numLanes="2" speed="60.00"/>
    <edge id="gneE131" from="GJ2" to="GJ1" priority="1" numLanes="2" speed="60.00"/>
    <edge id="gneE132" from="GJ1" to="YS3" priority="1" numLanes="2" speed="60.00"/>
    <edge id="gneE133" from="YS3" to="GJ1" priority="1" numLanes="2" speed="60.00"/>
    <edge id="gneE136" from="SC1" to="SC2" priority="1" numLanes="2" speed="60.00"/>
    <edge id="gneE137" from="SC2" to="SC1" priority="1" numLanes="2" speed="60.00"/>
    <edge id="gneE138" from="SC2" to="SC3" priority="1" numLanes="2" speed="60.00"/>
    <edge id="gneE139" from="SC3" to="SC2" priority="1" numLanes="2" speed="60.00"/>
    <edge id="gneE140" from="SC3" to="SC4" priority="1" numLanes="2" speed="60.00"/>
    <edge id="gneE141" from="SC4" to="SC3" priority="1" numLanes="2" speed="60.00"/>
    <edge id="gneE142" from="SC4" to="SC5" priority="1" numLanes="2" speed="60.00"/>
    <edge id="gneE143" from="SC5" to="SC4" priority="1" numLanes="2" speed="60.00"/>
    <edge id="gneE144" from="SC5" to="SC6" priority="1" numLanes="2" speed="60.00"/>
    <edge id="gneE145" from="SC6" to="SC5" priority="1" numLanes="2" speed="60.00"/>
    <edge id="gneE146" from="SC6" to="SC7" priority="1" numLanes="2" speed="60.00"/>
    <edge id="gneE147" from="SC7" to="SC6" priority="1" numLanes="2" speed="60.00"/>
    <edge id="gneE148" from="SC7" to="SC8" priority="1" numLanes="2" speed="60.00"/>
    <edge id="gneE149" from="SC8" to="SC7" priority="1" numLanes="2" speed="60.00"/>
    <edge id="gneE150" from="SC1" to="E_DSCS" priority="1" numLanes="1" speed="13.89"/>
    <edge id="gneE151" from="E_DSCS" to="SC1" priority="1" numLanes="1" speed="13.89"/>
    <edge id="gneE152" from="SC2" to="KS1" priority="1" numLanes="1" speed="13.89"/>
    <edge id="gneE153" from="KS1" to="SC2" priority="1" numLanes="1" speed="13.89"/>
    <edge id="gneE154" from="KS1" to="E_BSRR" priority="1" numLanes="1" speed="13.89"/>
    <edge id="gneE155" from="E_BSRR" to="KS1" priority="1" numLanes="1" speed="13.89"/>
    <edge id="gneE156" from="KS1" to="E_KAISTN" priority="1" numLanes="1" speed="13.89"/>
    <edge id="gneE157" from="E_KAISTN" to="KS1" priority="1" numLanes="1" speed="13.89"/>
    <edge id="gneE158" from="SC3" to="JJ3" priority="1" numLanes="1" speed="13.89"/>
    <edge id="gneE159" from="JJ3" to="SC3" priority="1" numLanes="1" speed="13.89"/>
    <edge id="gneE16" from="GJ8" to="GJ9" priority="1" numLanes="2" speed="60.00"/>
    <edge id="gneE160" from="JJ3" to="JJ2" priority="1" numLanes="1" speed="13.89"/>
    <edge id="gneE161" from="JJ2" to="JJ3" priority="1" numLanes="1" speed="13.89"/>
    <edge id="gneE162" from="JJ2" to="JJ1" priority="1" numLanes="1" speed="13.89"/>
    <edge id="gneE163" from="JJ1" to="JJ2" priority="1" numLanes="1" speed="13.89"/>
    <edge id="gneE164" from="JJ1" to="GJ10" priority="1" numLanes="1" speed="13.89"/>
    <edge id="gneE165" from="GJ10" to="JJ1" priority="1" numLanes="1" speed="13.89"/>
    <edge id="gneE166" from="GJ8" to="E_RC" priority="1" numLanes="1" speed="13.89"/>
    <edge id="gneE167" from="E_RC" to="GJ8" priority="1" numLanes="1" speed="13.89"/>
    <edge id="gneE169" from="E_KCRC" to="GJ9" priority="1" numLanes="1" speed="13.89"/>
    <edge id="gneE17" from="GJ9" to="GJ8" priority="1" numLanes="2" speed="60.00"/>
    <edge id="gneE171" from="E_KETR" to="JJ1" priority="1" numLanes="1" speed="13.89"/>
    <edge id="gneE172" from="JJ2" to="E_JJRR" priority="1" numLanes="1" speed="13.89"/>
    <edge id="gneE173" from="E_JJRR" to="JJ2" priority="1" numLanes="1" speed="13.89"/>
    <edge id="gneE174" from="JJ3" to="E_JJM" priority="1" numLanes="1" speed="13.89"/>
    <edge id="gneE175" from="E_JJM" to="JJ3" priority="1" numLanes="1" speed="13.89"/>
    <edge id="gneE178" from="GJ11" to="GJN3" priority="1" numLanes="2" speed="60.00"/>
    <edge id="gneE179" from="GJN3" to="GJ11" priority="1" numLanes="2" speed="60.00"/>
    <edge id="gneE18" from="GJ9" to="GJ10" priority="1" numLanes="2" speed="60.00"/>
    <edge id="gneE180" from="GJN3" to="GJN2" priority="1" numLanes="2" speed="60.00"/>
    <edge id="gneE181" from="GJN2" to="GJN3" priority="1" numLanes="2" speed="60.00"/>
    <edge id="gneE182" from="GJN2" to="GJN1" priority="1" numLanes="2" speed="60.00"/>
    <edge id="gneE184" from="GJN3" to="E_DDV" priority="1" numLanes="1" speed="13.89"/>
    <edge id="gneE185" from="E_DDV" to="GJN3" priority="1" numLanes="1" speed="13.89"/>
    <edge id="gneE186" from="GJN2" to="E_DDU" priority="1" numLanes="1" speed="13.89"/>
    <edge id="gneE187" from="E_DDU" to="GJN2" priority="1" numLanes="1" speed="13.89"/>
    <edge id="gneE188" from="DH0" to="DH1" priority="1" numLanes="2" speed="13.89"/>
    <edge id="gneE189" from="DH1" to="DH0" priority="1" numLanes="2" speed="13.89"/>
    <edge id="gneE19" from="GJ10" to="GJ9" priority="1" numLanes="2" speed="60.00"/>
    <edge id="gneE190" from="DH1" to="DH2" priority="1" numLanes="2" speed="13.89"/>
    <edge id="gneE191" from="DH2" to="DH1" priority="1" numLanes="2" speed="13.89"/>
    <edge id="gneE192" from="DH2" to="DH3" priority="1" numLanes="2" speed="13.89"/>
    <edge id="gneE193" from="DH3" to="DH2" priority="1" numLanes="2" speed="13.89"/>
    <edge id="gneE194" from="DH3" to="DH4" priority="1" numLanes="2" speed="60.00"/>
    <edge id="gneE195" from="DH4" to="DH3" priority="1" numLanes="2" speed="60.00"/>
    <edge id="gneE196" from="DH4" to="DH5" priority="1" numLanes="2" speed="60.00"/>
    <edge id="gneE197" from="DH5" to="DH4" priority="1" numLanes="2" speed="60.00"/>
    <edge id="gneE198" from="DH5" to="DH6" priority="1" numLanes="2" speed="60.00"/>
    <edge id="gneE199" from="DH6" to="DH5" priority="1" numLanes="2" speed="60.00"/>
    <edge id="gneE20" from="GJ10" to="GJ11" priority="1" numLanes="2" speed="60.00"/>
    <edge id="gneE200" from="DH6" to="SC8" priority="1" numLanes="2" speed="60.00"/>
    <edge id="gneE201" from="SC8" to="DH6" priority="1" numLanes="2" speed="60.00"/>
    <edge id="gneE202" from="SC8" to="DH7" priority="1" numLanes="2" speed="60.00"/>
    <edge id="gneE203" from="DH7" to="SC8" priority="1" numLanes="2" speed="60.00"/>
    <edge id="gneE204" from="DH7" to="DH8" priority="1" numLanes="2" speed="60.00"/>
    <edge id="gneE205" from="DH8" to="DH7" priority="1" numLanes="2" speed="60.00"/>
    <edge id="gneE206" from="DH8" to="DH9" priority="1" numLanes="2" speed="60.00"/>
    <edge id="gneE207" from="DH9" to="DH8" priority="1" numLanes="2" speed="60.00"/>
    <edge id="gneE208" from="DH9" to="DH10" priority="1" numLanes="2" speed="60.00"/>
    <edge id="gneE209" from="DH10" to="DH9" priority="1" numLanes="2" speed="60.00"/>
    <edge id="gneE21" from="GJ11" to="GJ10" priority="1" numLanes="2" speed="60.00"/>
    <edge id="gneE210" from="DH10" to="DH11" priority="1" numLanes="2" speed="60.00"/>
    <edge id="gneE211" from="DH11" to="DH10" priority="1" numLanes="2" speed="60.00"/>
    <edge id="gneE212" from="DH11" to="DH12" priority="1" numLanes="2" speed="60.00"/>
    <edge id="gneE213" from="DH12" to="DH11" priority="1" numLanes="2" speed="60.00"/>
    <edge id="gneE218" from="DH10" to="EXP0" priority="1" numLanes="1" speed="13.89"/>
    <edge id="gneE219" from="EXP0" to="DH10" priority="1" numLanes="1" speed="13.89"/>
    <edge id="gneE22" from="GJ11" to="GJ12" priority="1" numLanes="2" speed="60.00"/>
    <edge id="gneE220" from="EXP0" to="DH11" priority="1" numLanes="1" speed="13.89"/>
    <edge id="gneE221" from="DH11" to="EXP0" priority="1" numLanes="1" speed="13.89"/>
    <edge id="gneE222" from="EXP0" to="E_EXPOSP" priority="1" numLanes="1" speed="13.89"/>
    <edge id="gneE223" from="E_EXPOSP" to="EXP0" priority="1" numLanes="1" speed="13.89"/>
    <edge id="gneE224" from="DH12" to="DH13" priority="1" numLanes="2" speed="60.00"/>
    <edge id="gneE225" from="DH13" to="DH12" priority="1" numLanes="2" speed="60.00"/>
    <edge id="gneE226" from="DH13" to="DH14" priority="1" numLanes="2" speed="60.00"/>
    <edge id="gneE227" from="DH14" to="DH13" priority="1" numLanes="2" speed="60.00"/>
    <edge id="gneE228" from="DH14" to="DH15" priority="1" numLanes="2" speed="60.00"/>
    <edge id="gneE229" from="DH15" to="DH14" priority="1" numLanes="2" speed="60.00"/>
    <edge id="gneE23" from="GJ12" to="GJ11" priority="1" numLanes="2" speed="60.00"/>
    <edge id="gneE230" from="DH13" to="E_DMS" priority="1" numLanes="1" speed="13.89"/>
    <edge id="gneE231" from="E_DMS" to="DH13" priority="1" numLanes="1" speed="13.89"/>
    <edge id="gneE232" from="DH14" to="EXP4" priority="1" numLanes="2" speed="60.00"/>
    <edge id="gneE233" from="EXP4" to="DH14" priority="1" numLanes="2" speed="60.00"/>
    <edge id="gneE234" from="EXP4" to="EXP3" priority="1" numLanes="2" speed="60.00"/>
    <edge id="gneE235" from="EXP3" to="EXP4" priority="1" numLanes="2" speed="60.00"/>
    <edge id="gneE236" from="EXP3" to="E_EGOLF" priority="1" numLanes="1" speed="13.89"/>
    <edge id="gneE237" from="E_EGOLF" to="EXP3" priority="1" numLanes="1" speed="13.89"/>
    <edge id="gneE238" from="EXP4" to="EXP5" priority="1" numLanes="1" speed="13.89"/>
    <edge id="gneE239" from="EXP5" to="EXP4" priority="1" numLanes="1" speed="13.89"/>
    <edge id="gneE24" from="GJ12" to="GJ13" priority="1" numLanes="2" speed="60.00"/>
    <edge id="gneE240" from="EXP3" to="EXP2" priority="1" numLanes="2" speed="60.00"/>
    <edge id="gneE241" from="EXP2" to="EXP3" priority="1" numLanes="2" speed="60.00"/>
    <edge id="gneE242" from="EXP2" to="EXP1" priority="1" numLanes="2" speed="60.00"/>
    <edge id="gneE243" from="EXP1" to="EXP2" priority="1" numLanes="2" speed="60.00"/>
    <edge id="gneE244" from="EXP1" to="EX2" priority="1" numLanes="2" speed="60.00"/>
    <edge id="gneE245" from="EX2" to="EXP1" priority="1" numLanes="2" speed="60.00"/>
    <edge id="gneE246" from="EXP2" to="EX1" priority="1" numLanes="1" speed="13.89"/>
    <edge id="gneE247" from="EX1" to="EXP2" priority="1" numLanes="1" speed="13.89"/>
    <edge id="gneE248" from="DD1" to="DD2" priority="1" numLanes="2" speed="60.00"/>
    <edge id="gneE249" from="DD2" to="DD1" priority="1" numLanes="2" speed="60.00"/>
    <edge id="gneE25" from="GJ13" to="GJ12" priority="1" numLanes="2" speed="60.00"/>
    <edge id="gneE250" from="DD2" to="DD3" priority="1" numLanes="2" speed="60.00"/>
    <edge id="gneE251" from="DD3" to="DD2" priority="1" numLanes="2" speed="60.00"/>
    <edge id="gneE254" from="DD3" to="GJ19" priority="1" numLanes="2" speed="60.00"/>
    <edge id="gneE255" from="GJ19" to="DD3" priority="1" numLanes="2" speed="60.00"/>
    <edge id="gneE256" from="GJ19" to="DD4" priority="1" numLanes="2" speed="60.00"/>
    <edge id="gneE257" from="DD4" to="GJ19" priority="1" numLanes="2" speed="60.00"/>
    <edge id="gneE26" from="GJ13" to="GJ14" priority="1" numLanes="2" speed="60.00"/>
    <edge id="gneE260" from="DD6" to="DD7" priority="1" numLanes="2" speed="60.00"/>
    <edge id="gneE261" from="DD7" to="DD6" priority="1" numLanes="2" speed="60.00"/>
    <edge id="gneE262" from="DD7" to="DD8" priority="1" numLanes="2" speed="60.00"/>
    <edge id="gneE263" from="DD8" to="DD7" priority="1" numLanes="2" speed="60.00"/>
    <edge id="gneE264" from="DD8" to="DD9" priority="1" numLanes="2" speed="60.00"/>
    <edge id="gneE265" from="DD9" to="DD8" priority="1" numLanes="2" speed="60.00"/>
    <edge id="gneE266" from="DD9" to="DD10" priority="1" numLanes="2" speed="60.00"/>
    <edge id="gneE267" from="DD10" to="DD9" priority="1" numLanes="2" speed="60.00"/>
    <edge id="gneE268" from="DD10" to="DD10_1" priority="1" numLanes="2" speed="60.00"/>
    <edge id="gneE269" from="DD10_1" to="DD10" priority="1" numLanes="2" speed="60.00"/>
    <edge id="gneE27" from="GJ14" to="GJ13" priority="1" numLanes="2" speed="60.00"/>
    <edge id="gneE270" from="DD10_1" to="DH9" priority="1" numLanes="2" speed="60.00"/>
    <edge id="gneE271" from="DH9" to="DD10_1" priority="1" numLanes="2" speed="60.00"/>
    <edge id="gneE272" from="DH9" to="DD11" priority="1" numLanes="2" speed="13.89"/>
    <edge id="gneE273" from="DD11" to="DH9" priority="1" numLanes="2" speed="13.89"/>
    <edge id="gneE274" from="DD11" to="DD12" priority="1" numLanes="2" speed="13.89"/>
    <edge id="gneE275" from="DD12" to="DD11" priority="1" numLanes="2" speed="13.89"/>
    <edge id="gneE276" from="DD12" to="DD13" priority="1" numLanes="2" speed="13.89"/>
    <edge id="gneE277" from="DD13" to="DD12" priority="1" numLanes="2" speed="13.89"/>
    <edge id="gneE278" from="DD13" to="DD14" priority="1" numLanes="2" speed="13.89"/>
    <edge id="gneE279" from="DD14" to="DD13" priority="1" numLanes="2" speed="13.89"/>
    <edge id="gneE28" from="GJ14" to="GJ15" priority="1" numLanes="2" speed="60.00"/>
    <edge id="gneE280" from="DD14" to="DD15" priority="1" numLanes="2" speed="13.89"/>
    <edge id="gneE281" from="DD15" to="DD14" priority="1" numLanes="2" speed="13.89"/>
    <edge id="gneE282" from="DD15" to="DD16" priority="1" numLanes="2" speed="60.00"/>
    <edge id="gneE283" from="DD16" to="DD15" priority="1" numLanes="2" speed="60.00"/>
    <edge id="gneE284" from="DD16" to="DD17" priority="1" numLanes="2" speed="60.00"/>
    <edge id="gneE285" from="DD17" to="DD16" priority="1" numLanes="2" speed="60.00"/>
    <edge id="gneE288" from="CB0" to="CB1" priority="1" numLanes="2" speed="60.00"/>
    <edge id="gneE289" from="CB1" to="CB0" priority="1" numLanes="2" speed="60.00"/>
    <edge id="gneE29" from="GJ15" to="GJ14" priority="1" numLanes="2" speed="60.00"/>
    <edge id="gneE292" from="CB3" to="CB4" priority="1" numLanes="2" speed="60.00"/>
    <edge id="gneE293" from="CB4" to="CB3" priority="1" numLanes="2" speed="60.00"/>
    <edge id="gneE296" from="DD11" to="CB7" priority="1" numLanes="2" speed="60.00"/>
    <edge id="gneE297" from="CB7" to="DD11" priority="1" numLanes="2" speed="60.00"/>
    <edge id="gneE298" from="CB7" to="CB8" priority="1" numLanes="2" speed="60.00"/>
    <edge id="gneE299" from="CB8" to="CB7" priority="1" numLanes="2" speed="60.00"/>
    <edge id="gneE30" from="GJ15" to="GJ16" priority="1" numLanes="2" speed="60.00"/>
    <edge id="gneE306" from="CB4" to="DS1" priority="1" numLanes="2" speed="60.00"/>
    <edge id="gneE307" from="DS1" to="CB4" priority="1" numLanes="2" speed="60.00"/>
    <edge id="gneE308" from="DS1" to="DS2" priority="1" numLanes="2" speed="60.00"/>
    <edge id="gneE309" from="DS2" to="DS1" priority="1" numLanes="2" speed="60.00"/>
    <edge id="gneE31" from="GJ16" to="GJ15" priority="1" numLanes="2" speed="60.00"/>
    <edge id="gneE314" from="DS2" to="DS3" priority="1" numLanes="2" speed="60.00"/>
    <edge id="gneE315" from="DS3" to="DS2" priority="1" numLanes="2" speed="60.00"/>
    <edge id="gneE318" from="DS3" to="DD15" priority="1" numLanes="2" speed="60.00"/>
    <edge id="gneE32" from="GJ16" to="GJ17" priority="1" numLanes="2" speed="60.00"/>
    <edge id="gneE320" from="DD15" to="DS4" priority="1" numLanes="2" speed="60.00"/>
    <edge id="gneE321" from="DS4" to="DD15" priority="1" numLanes="2" speed="60.00"/>
    <edge id="gneE322" from="DS4" to="DS5" priority="1" numLanes="2" speed="60.00"/>
    <edge id="gneE323" from="DS5" to="DS4" priority="1" numLanes="2" speed="60.00"/>
    <edge id="gneE324" from="DS5" to="DS6" priority="1" numLanes="2" speed="60.00"/>
    <edge id="gneE325" from="DS6" to="DS5" priority="1" numLanes="2" speed="60.00"/>
    <edge id="gneE326" from="DS6" to="DS7" priority="1" numLanes="2" speed="60.00"/>
    <edge id="gneE327" from="DS7" to="DS6" priority="1" numLanes="2" speed="60.00"/>
    <edge id="gneE328" from="CB1" to="CB2" priority="1" numLanes="2" speed="60.00"/>
    <edge id="gneE329" from="CB2" to="CB1" priority="1" numLanes="2" speed="60.00"/>
    <edge id="gneE33" from="GJ17" to="GJ16" priority="1" numLanes="2" speed="60.00"/>
    <edge id="gneE330" from="CB2" to="CB3" priority="1" numLanes="2" speed="60.00"/>
    <edge id="gneE331" from="CB3" to="CB2" priority="1" numLanes="2" speed="60.00"/>
    <edge id="gneE332" from="CB3" to="WP1" priority="1" numLanes="2" speed="60.00"/>
    <edge id="gneE333" from="WP1" to="CB3" priority="1" numLanes="2" speed="60.00"/>
    <edge id="gneE336" from="CB2" to="E_HNRA" priority="1" numLanes="1" speed="13.89"/>
    <edge id="gneE337" from="E_HNRA" to="CB2" priority="1" numLanes="1" speed="13.89"/>
    <edge id="gneE338" from="CB1" to="WPM1" priority="1" numLanes="2" speed="60.00"/>
    <edge id="gneE339" from="WPM1" to="CB1" priority="1" numLanes="2" speed="60.00"/>
    <edge id="gneE34" from="GJ17" to="GJ18" priority="1" numLanes="2" speed="60.00"/>
    <edge id="gneE344" from="DS2" to="WP3" priority="1" numLanes="2" speed="60.00"/>
    <edge id="gneE345" from="WP3" to="DS2" priority="1" numLanes="2" speed="60.00"/>
    <edge id="gneE348" from="WP3" to="GM1" priority="1" numLanes="2" speed="60.00"/>
    <edge id="gneE349" from="GM1" to="WP3" priority="1" numLanes="2" speed="60.00"/>
    <edge id="gneE35" from="GJ18" to="GJ17" priority="1" numLanes="2" speed="60.00"/>
    <edge id="gneE352" from="WP3" to="WP4" priority="1" numLanes="2" speed="60.00"/>
    <edge id="gneE353" from="WP4" to="WP3" priority="1" numLanes="2" speed="60.00"/>
    <edge id="gneE354" from="WP4" to="WP5" priority="1" numLanes="2" speed="60.00"/>
    <edge id="gneE355" from="WP5" to="WP4" priority="1" numLanes="2" speed="60.00"/>
    <edge id="gneE356" from="WP5" to="DD17" priority="1" numLanes="2" speed="60.00"/>
    <edge id="gneE357" from="DD17" to="WP5" priority="1" numLanes="2" speed="60.00"/>
    <edge id="gneE36" from="GJ18" to="GJ19" priority="1" numLanes="2" speed="60.00"/>
    <edge id="gneE362" from="WP5" to="CH1" priority="1" numLanes="1" speed="13.89"/>
    <edge id="gneE363" from="CH1" to="WP5" priority="1" numLanes="1" speed="13.89"/>
    <edge id="gneE364" from="WP4" to="E-BHA" priority="1" numLanes="1" speed="13.89"/>
    <edge id="gneE365" from="E-BHA" to="WP4" priority="1" numLanes="1" speed="13.89"/>
    <edge id="gneE37" from="GJ19" to="GJ18" priority="1" numLanes="2" speed="60.00"/>
    <edge id="gneE374" from="DD17" to="DD18" priority="1" numLanes="2" speed="60.00"/>
    <edge id="gneE375" from="DD18" to="DD17" priority="1" numLanes="2" speed="60.00"/>
    <edge id="gneE376" from="CH1" to="DD18" priority="1" numLanes="1" speed="13.89"/>
    <edge id="gneE377" from="DD18" to="CH1" priority="1" numLanes="1" speed="13.89"/>
    <edge id="gneE378" from="DD18" to="E_GOVREC" priority="1" numLanes="1" speed="13.89"/>
    <edge id="gneE379" from="E_GOVREC" to="DD18" priority="1" numLanes="1" speed="13.89"/>
    <edge id="gneE38" from="GJ19" to="GJ20" priority="1" numLanes="2" speed="60.00"/>
    <edge id="gneE380" from="DD18" to="DD19" priority="1" numLanes="2" speed="60.00"/>
    <edge id="gneE381" from="DD19" to="DD18" priority="1" numLanes="2" speed="60.00"/>
    <edge id="gneE382" from="CH1" to="CH2" priority="1" numLanes="1" speed="13.89"/>
    <edge id="gneE383" from="CH2" to="CH1" priority="1" numLanes="1" speed="13.89"/>
    <edge id="gneE384" from="CB4" to="CB5" priority="1" numLanes="2" speed="60.00"/>
    <edge id="gneE385" from="CB5" to="CB4" priority="1" numLanes="2" speed="60.00"/>
    <edge id="gneE386" from="CB5" to="CB6" priority="1" numLanes="2" speed="60.00"/>
    <edge id="gneE387" from="CB6" to="CB5" priority="1" numLanes="2" speed="60.00"/>
    <edge id="gneE388" from="CB6" to="DD11" priority="1" numLanes="2" speed="60.00"/>
    <edge id="gneE389" from="DD11" to="CB6" priority="1" numLanes="2" speed="60.00"/>
    <edge id="gneE39" from="GJ20" to="GJ19" priority="1" numLanes="2" speed="60.00"/>
    <edge id="gneE390" from="CB5" to="E_MNH" priority="1" numLanes="1" speed="13.89"/>
    <edge id="gneE391" from="E_MNH" to="CB5" priority="1" numLanes="1" speed="13.89"/>
    <edge id="gneE392" from="CB6" to="MNR1" priority="1" numLanes="1" speed="13.89"/>
    <edge id="gneE393" from="MNR1" to="CB6" priority="1" numLanes="1" speed="13.89"/>
    <edge id="gneE396" from="MNR1" to="MNR2" priority="1" numLanes="1" speed="13.89"/>
    <edge id="gneE397" from="MNR2" to="MNR1" priority="1" numLanes="1" speed="13.89"/>
    <edge id="gneE398" from="MNR2" to="E_CWA" priority="1" numLanes="1" speed="13.89"/>
    <edge id="gneE399" from="E_CWA" to="MNR2" priority="1" numLanes="1" speed="13.89"/>
    <edge id="gneE4" from="GJ2" to="GJ3" priority="1" numLanes="2" speed="60.00"/>
    <edge id="gneE40" from="GJ20" to="GJ21" priority="1" numLanes="2" speed="60.00"/>
    <edge id="gneE400" from="MNR2" to="DD14" priority="1" numLanes="1" speed="13.89"/>
    <edge id="gneE401" from="DD14" to="MNR2" priority="1" numLanes="1" speed="13.89"/>
    <edge id="gneE402" from="DS3" to="E_SRSHDA" priority="1" numLanes="1" speed="13.89"/>
    <edge id="gneE403" from="E_SRSHDA" to="DS3" priority="1" numLanes="1" speed="13.89"/>
    <edge id="gneE404" from="CB7" to="DS117_1" priority="1" numLanes="1" speed="13.89"/>
    <edge id="gneE405" from="DS117_1" to="CB7" priority="1" numLanes="1" speed="13.89"/>
    <edge id="gneE406" from="DS117_1" to="DS117_2" priority="1" numLanes="1" speed="13.89"/>
    <edge id="gneE407" from="DS117_2" to="DS117_1" priority="1" numLanes="1" speed="13.89"/>
    <edge id="gneE408" from="DS117_2" to="DS117_3" priority="1" numLanes="1" speed="13.89"/>
    <edge id="gneE409" from="DS117_3" to="DS117_2" priority="1" numLanes="1" speed="13.89"/>
    <edge id="gneE41" from="GJ21" to="GJ20" priority="1" numLanes="2" speed="60.00"/>
    <edge id="gneE410" from="DS117_3" to="MNR4" priority="1" numLanes="1" speed="13.89"/>
    <edge id="gneE411" from="MNR4" to="DS117_3" priority="1" numLanes="1" speed="13.89"/>
    <edge id="gneE412" from="MNR4" to="DS117_4" priority="1" numLanes="1" speed="13.89"/>
    <edge id="gneE413" from="DS117_4" to="MNR4" priority="1" numLanes="1" speed="13.89"/>
    <edge id="gneE414" from="DS117_4" to="DS117_5" priority="1" numLanes="1" speed="13.89"/>
    <edge id="gneE415" from="DS117_5" to="DS117_4" priority="1" numLanes="1" speed="13.89"/>
    <edge id="gneE416" from="DS117_5" to="DS4" priority="1" numLanes="1" speed="13.89"/>
    <edge id="gneE417" from="DS4" to="DS117_5" priority="1" numLanes="1" speed="13.89"/>
    <edge id="gneE418" from="DS117_1" to="MN67_1" priority="1" numLanes="1" speed="13.89"/>
    <edge id="gneE419" from="MN67_1" to="DS117_1" priority="1" numLanes="1" speed="13.89"/>
    <edge id="gneE42" from="GJ1" to="YS2" priority="1" numLanes="2" speed="60.00"/>
    <edge id="gneE420" from="MN67_1" to="DD13" priority="1" numLanes="1" speed="13.89"/>
    <edge id="gneE421" from="DD13" to="MN67_1" priority="1" numLanes="1" speed="13.89"/>
    <edge id="gneE422" from="MN67_1" to="MN67_2" priority="1" numLanes="1" speed="13.89"/>
    <edge id="gneE423" from="MN67_2" to="MN67_1" priority="1" numLanes="1" speed="13.89"/>
    <edge id="gneE424" from="MN67_2" to="MN67_3" priority="1" numLanes="1" speed="13.89"/>
    <edge id="gneE425" from="MN67_3" to="MN67_2" priority="1" numLanes="1" speed="13.89"/>
    <edge id="gneE426" from="MN67_3" to="MNR3" priority="1" numLanes="1" speed="13.89"/>
    <edge id="gneE427" from="MNR3" to="MN67_3" priority="1" numLanes="1" speed="13.89"/>
    <edge id="gneE428" from="MNR3" to="MN67_4" priority="1" numLanes="1" speed="13.89"/>
    <edge id="gneE429" from="MN67_4" to="MNR3" priority="1" numLanes="1" speed="13.89"/>
    <edge id="gneE43" from="YS2" to="GJ1" priority="1" numLanes="2" speed="60.00"/>
    <edge id="gneE430" from="MN67_4" to="MN67_5" priority="1" numLanes="1" speed="13.89"/>
    <edge id="gneE431" from="MN67_5" to="MN67_4" priority="1" numLanes="1" speed="13.89"/>
    <edge id="gneE432" from="MN67_5" to="DS117_5" priority="1" numLanes="1" speed="13.89"/>
    <edge id="gneE433" from="DS117_5" to="MN67_5" priority="1" numLanes="1" speed="13.89"/>
    <edge id="gneE434" from="MN67_4" to="DS117_4" priority="1" numLanes="1" speed="13.89"/>
    <edge id="gneE435" from="DS117_4" to="MN67_4" priority="1" numLanes="1" speed="13.89"/>
    <edge id="gneE436" from="MNR3" to="MNR4" priority="1" numLanes="1" speed="13.89"/>
    <edge id="gneE437" from="MNR4" to="MNR3" priority="1" numLanes="1" speed="13.89"/>
    <edge id="gneE44" from="YS2" to="YS1" priority="1" numLanes="2" speed="60.00"/>
    <edge id="gneE440" from="MN67_3" to="DS117_3" priority="1" numLanes="1" speed="13.89"/>
    <edge id="gneE441" from="DS117_3" to="MN67_3" priority="1" numLanes="1" speed="13.89"/>
    <edge id="gneE442" from="DS117_2" to="MN67_2" priority="1" numLanes="1" speed="13.89"/>
    <edge id="gneE443" from="MN67_2" to="DS117_2" priority="1" numLanes="1" speed="13.89"/>
    <edge id="gneE444" from="MNR3" to="DD14" priority="1" numLanes="1" speed="13.89"/>
    <edge id="gneE445" from="DD14" to="MNR3" priority="1" numLanes="1" speed="13.89"/>
    <edge id="gneE448" from="DS6" to="MY1" priority="1" numLanes="2" speed="60.00"/>
    <edge id="gneE449" from="MY1" to="DS6" priority="1" numLanes="2" speed="60.00"/>
    <edge id="gneE45" from="YS1" to="YS2" priority="1" numLanes="2" speed="60.00"/>
    <edge id="gneE450" from="MY1" to="MY2" priority="1" numLanes="2" speed="60.00"/>
    <edge id="gneE451" from="MY2" to="MY1" priority="1" numLanes="2" speed="60.00"/>
    <edge id="gneE452" from="MY1" to="YD1" priority="1" numLanes="1" speed="13.89"/>
    <edge id="gneE453" from="YD1" to="MY1" priority="1" numLanes="1" speed="13.89"/>
    <edge id="gneE454" from="MNR4" to="MNR5" priority="1" numLanes="1" speed="13.89"/>
    <edge id="gneE455" from="MNR5" to="MNR4" priority="1" numLanes="1" speed="13.89"/>
    <edge id="gneE456" from="MNR5" to="E_DJYJ1" priority="1" numLanes="1" speed="13.89"/>
    <edge id="gneE457" from="E_DJYJ1" to="MNR5" priority="1" numLanes="1" speed="13.89"/>
    <edge id="gneE458" from="MNR5" to="MNR6" priority="1" numLanes="1" speed="13.89"/>
    <edge id="gneE459" from="MNR6" to="MNR5" priority="1" numLanes="1" speed="13.89"/>
    <edge id="gneE46" from="YS3" to="YS4" priority="1" numLanes="2" speed="60.00"/>
    <edge id="gneE462" from="MNR6" to="E_HBSMW" priority="1" numLanes="1" speed="13.89"/>
    <edge id="gneE463" from="E_HBSMW" to="MNR6" priority="1" numLanes="1" speed="13.89"/>
    <edge id="gneE464" from="WP1" to="WPE1" priority="1" numLanes="2" speed="60.00"/>