<?xml version="1.0" encoding="UTF-8"?>

<!-- generated on 2016-07-15 오전 11:33:19 by Netedit Version 0.25.0
<?xml version="1.0" encoding="UTF-8"?>

<configuration xmlns:xsi="http://www.w3.org/2001/XMLSchema-instance" xsi:noNamespaceSchemaLocation="http://sumo.dlr.de/xsd/netedit.exeConfiguration.xsd">

    <input>
        <sumo-net-file value="D:\Coursework\Thesis\sumo-win32-0.25.0\sumo-0.25.0\DJProject\DJMap_v1.1.net.xml"/>
    </input>

    <output>
        <output-file value="D:\Coursework\Thesis\sumo-win32-0.25.0\sumo-0.25.0\DJProject\DJMap_v1.2.net.xml"/>
    </output>

    <processing>
        <no-turnarounds value="true"/>
        <offset.disable-normalization value="true"/>
        <lefthand value="false"/>
        <junctions.corner-detail value="0"/>
    </processing>

</configuration>
-->

<net version="0.25" xmlns:xsi="http://www.w3.org/2001/XMLSchema-instance" xsi:noNamespaceSchemaLocation="http://sumo.dlr.de/xsd/net_file.xsd">

    <location netOffset="0.00,0.00" convBoundary="-1962.34,-1276.48,1497.10,1374.30" origBoundary="-10000000000.00,-10000000000.00,10000000000.00,10000000000.00" projParameter="!"/>

    <edge id=":541_1_0" function="internal">
        <lane id=":541_1_0_0" index="0" speed="13.89" length="6.93" shape="271.97,789.22 267.85,794.79"/>
    </edge>
    <edge id=":541_1_1" function="internal">
        <lane id=":541_1_1_0" index="0" speed="13.89" length="3.08" shape="271.97,789.22 270.07,790.22 269.15,790.38"/>
    </edge>
    <edge id=":541_1_6" function="internal">
        <lane id=":541_1_6_0" index="0" speed="13.89" length="6.01" shape="269.15,790.38 268.00,790.57 265.76,790.28 263.35,789.34"/>
    </edge>
    <edge id=":541_1_2" function="internal">
        <lane id=":541_1_2_0" index="0" speed="13.89" length="5.46" shape="264.85,786.40 266.36,787.01 267.73,787.24 268.96,787.09 270.03,786.55"/>
    </edge>
    <edge id=":541_1_3" function="internal">
        <lane id=":541_1_3_0" index="0" speed="13.89" length="10.05" shape="264.85,786.40 267.09,787.96 268.33,789.89 268.59,792.16 267.85,794.79"/>
    </edge>
    <edge id=":541_1_4" function="internal">
        <lane id=":541_1_4_0" index="0" speed="13.89" length="4.93" shape="264.83,793.46 265.19,792.17 265.07,791.05 264.45,790.11 263.35,789.34"/>
    </edge>
    <edge id=":541_1_5" function="internal">
        <lane id=":541_1_5_0" index="0" speed="13.89" length="8.65" shape="264.83,793.46 270.03,786.55"/>
    </edge>
    <edge id=":541_2_0" function="internal">
        <lane id=":541_2_0_0" index="0" speed="13.89" length="5.06" shape="314.07,761.98 312.70,761.49 311.44,761.36 310.29,761.56 309.25,762.10"/>
    </edge>
    <edge id=":541_2_1" function="internal">
        <lane id=":541_2_1_0" index="0" speed="13.89" length="9.25" shape="314.07,761.98 311.99,760.66 310.66,758.96 310.08,756.88 310.26,754.42"/>
    </edge>
    <edge id=":541_2_2" function="internal">
        <lane id=":541_2_2_0" index="0" speed="13.89" length="4.75" shape="313.49,755.10 313.40,756.36 313.69,757.43 314.37,758.30 315.45,758.97"/>
    </edge>
    <edge id=":541_2_3" function="internal">
        <lane id=":541_2_3_0" index="0" speed="13.89" length="8.19" shape="313.49,755.10 309.25,762.10"/>
    </edge>
    <edge id=":541_2_4" function="internal">
        <lane id=":541_2_4_0" index="0" speed="13.89" length="5.82" shape="307.31,759.44 310.26,754.42"/>
    </edge>
    <edge id=":541_2_5" function="internal">
        <lane id=":541_2_5_0" index="0" speed="13.89" length="2.61" shape="307.31,759.44 309.14,758.44 309.66,758.34"/>
    </edge>
    <edge id=":541_2_6" function="internal">
        <lane id=":541_2_6_0" index="0" speed="13.89" length="5.95" shape="309.66,758.34 311.11,758.04 313.21,758.21 315.45,758.97"/>
    </edge>
    <edge id=":541_3_0" function="internal">
        <lane id=":541_3_0_0" index="0" speed="13.89" length="1.48" shape="344.37,611.53 344.04,611.73 343.78,611.98 343.60,612.29 343.48,612.65"/>
    </edge>
    <edge id=":541_3_1" function="internal">
        <lane id=":541_3_1_0" index="0" speed="13.89" length="4.53" shape="340.25,611.97 340.61,610.86 341.18,609.92 341.96,609.15 342.96,608.55"/>
    </edge>
    <edge id=":541_4_0" function="internal">
        <lane id=":541_4_0_0" index="0" speed="13.89" length="5.11" shape="436.05,571.88 435.33,570.66 434.39,569.98 433.26,569.84 431.93,570.25"/>
    </edge>
    <edge id=":541_4_1" function="internal">
        <lane id=":541_4_1_0" index="0" speed="13.89" length="10.65" shape="436.05,571.88 435.31,569.04 435.69,566.69 437.18,564.83 439.79,563.48"/>
    </edge>
    <edge id=":541_4_2" function="internal">
        <lane id=":541_4_2_0" index="0" speed="13.89" length="5.08" shape="440.88,566.60 439.63,567.24 438.92,568.12 438.74,569.25 439.10,570.60"/>
    </edge>
    <edge id=":541_4_3" function="internal">
        <lane id=":541_4_3_0" index="0" speed="13.89" length="9.66" shape="440.88,566.60 431.93,570.25"/>
    </edge>
    <edge id=":541_4_4" function="internal">
        <lane id=":541_4_4_0" index="0" speed="13.89" length="10.02" shape="430.52,567.26 433.22,566.00 435.08,565.19 436.99,564.46 439.79,563.48"/>
    </edge>
    <edge id=":541_4_5" function="internal">
        <lane id=":541_4_5_0" index="0" speed="13.89" length="5.61" shape="430.52,567.26 433.30,566.41 435.66,566.69 435.93,566.89"/>
    </edge>
    <edge id=":541_4_6" function="internal">
        <lane id=":541_4_6_0" index="0" speed="13.89" length="4.98" shape="435.93,566.89 437.59,568.08 439.10,570.60"/>
    </edge>
    <edge id=":556_1_0" function="internal">
        <lane id=":556_1_0_0" index="0" speed="13.89" length="5.71" shape="681.63,1029.79 680.85,1028.90 679.73,1028.26 678.30,1027.88 676.55,1027.75"/>
    </edge>
    <edge id=":556_1_1" function="internal">
        <lane id=":556_1_1_0" index="0" speed="13.89" length="8.67" shape="681.63,1029.79 679.65,1021.35"/>
    </edge>
    <edge id=":556_1_2" function="internal">
        <lane id=":556_1_2_0" index="0" speed="13.89" length="6.87" shape="682.95,1021.35 684.44,1028.06"/>
    </edge>
    <edge id=":556_1_3" function="internal">
        <lane id=":556_1_3_0" index="0" speed="13.89" length="3.67" shape="682.95,1021.35 682.55,1024.15 682.12,1024.86"/>
    </edge>
    <edge id=":556_1_6" function="internal">
        <lane id=":556_1_6_0" index="0" speed="13.89" length="6.66" shape="682.12,1024.86 681.35,1026.15 679.35,1027.35 676.55,1027.75"/>
    </edge>
    <edge id=":556_1_4" function="internal">
        <lane id=":556_1_4_0" index="0" speed="13.89" length="5.00" shape="676.55,1024.45 677.90,1024.26 678.87,1023.67 679.45,1022.71 679.65,1021.35"/>
    </edge>
    <edge id=":556_1_5" function="internal">
        <lane id=":556_1_5_0" index="0" speed="13.89" length="9.07" shape="676.55,1024.45 679.17,1024.67 681.36,1025.35 683.12,1026.48 684.44,1028.06"/>
    </edge>
    <edge id=":556_2_0" function="internal">
        <lane id=":556_2_0_0" index="0" speed="13.89" length="5.00" shape="679.62,990.09 679.43,988.74 678.85,987.77 677.88,987.18 676.52,986.99"/>
    </edge>
    <edge id=":556_2_1" function="internal">
        <lane id=":556_2_1_0" index="0" speed="13.89" length="9.51" shape="679.62,990.09 679.62,980.59"/>
    </edge>
    <edge id=":556_2_2" function="internal">
        <lane id=":556_2_2_0" index="0" speed="13.89" length="10.33" shape="679.62,990.09 680.02,987.29 681.22,985.29 683.22,984.09 686.02,983.69"/>
    </edge>
    <edge id=":556_2_3" function="internal">
        <lane id=":556_2_3_0" index="0" speed="13.89" length="5.00" shape="686.02,986.99 684.67,987.18 683.70,987.76 683.12,988.73 682.92,990.09"/>
    </edge>
    <edge id=":556_2_4" function="internal">
        <lane id=":556_2_4_0" index="0" speed="13.89" length="9.50" shape="686.02,986.99 676.52,986.99"/>
    </edge>
    <edge id=":556_2_5" function="internal">
        <lane id=":556_2_5_0" index="0" speed="13.89" length="5.28" shape="686.02,986.99 683.22,986.59 681.22,985.39 681.16,985.29"/>
    </edge>
    <edge id=":556_2_12" function="internal">
        <lane id=":556_2_12_0" index="0" speed="13.89" length="5.05" shape="681.16,985.29 680.02,983.39 679.62,980.59"/>
    </edge>
    <edge id=":556_2_6" function="internal">
        <lane id=":556_2_6_0" index="0" speed="13.89" length="5.00" shape="682.92,980.59 683.12,981.94 683.70,982.91 684.67,983.50 686.02,983.69"/>
    </edge>
    <edge id=":556_2_7" function="internal">
        <lane id=":556_2_7_0" index="0" speed="13.89" length="9.50" shape="682.92,980.59 682.92,990.09"/>
    </edge>
    <edge id=":556_2_8" function="internal">
        <lane id=":556_2_8_0" index="0" speed="13.89" length="10.32" shape="682.92,980.59 682.52,983.39 681.32,985.39 679.32,986.59 676.52,986.99"/>
    </edge>
    <edge id=":556_2_9" function="internal">
        <lane id=":556_2_9_0" index="0" speed="13.89" length="5.01" shape="676.52,983.69 677.88,983.50 678.85,982.91 679.43,981.94 679.62,980.59"/>
    </edge>
    <edge id=":556_2_10" function="internal">
        <lane id=":556_2_10_0" index="0" speed="13.89" length="9.50" shape="676.52,983.69 686.02,983.69"/>
    </edge>
    <edge id=":556_2_11" function="internal">
        <lane id=":556_2_11_0" index="0" speed="13.89" length="5.28" shape="676.52,983.69 679.32,984.09 681.32,985.29 681.38,985.39"/>
    </edge>
    <edge id=":556_2_13" function="internal">
        <lane id=":556_2_13_0" index="0" speed="13.89" length="5.05" shape="681.38,985.39 682.52,987.29 682.92,990.09"/>
    </edge>
    <edge id=":556_3_0" function="internal">
        <lane id=":556_3_0_0" index="0" speed="13.89" length="5.01" shape="679.69,798.23 679.50,796.87 678.91,795.90 677.94,795.32 676.58,795.12"/>
    </edge>
    <edge id=":556_3_1" function="internal">
        <lane id=":556_3_1_0" index="0" speed="13.89" length="9.50" shape="679.69,798.23 679.69,788.73"/>
    </edge>
    <edge id=":556_3_2" function="internal">
        <lane id=":556_3_2_0" index="0" speed="13.89" length="5.28" shape="679.69,798.23 680.09,795.43 681.29,793.43 681.39,793.37"/>
    </edge>
    <edge id=":556_3_12" function="internal">
        <lane id=":556_3_12_0" index="0" speed="13.89" length="5.04" shape="681.39,793.37 683.29,792.23 686.09,791.83"/>
    </edge>
    <edge id=":556_3_3" function="internal">
        <lane id=":556_3_3_0" index="0" speed="13.89" length="5.00" shape="686.09,795.13 684.73,795.32 683.77,795.90 683.18,796.87 682.99,798.23"/>
    </edge>
    <edge id=":556_3_4" function="internal">
        <lane id=":556_3_4_0" index="0" speed="13.89" length="9.51" shape="686.09,795.13 676.58,795.12"/>
    </edge>
    <edge id=":556_3_5" function="internal">
        <lane id=":556_3_5_0" index="0" speed="13.89" length="10.33" shape="686.09,795.13 683.29,794.73 681.29,793.53 680.09,791.53 679.69,788.73"/>
    </edge>
    <edge id=":556_3_6" function="internal">
        <lane id=":556_3_6_0" index="0" speed="13.89" length="5.00" shape="682.99,788.73 683.18,790.08 683.77,791.05 684.73,791.64 686.09,791.83"/>
    </edge>
    <edge id=":556_3_7" function="internal">
        <lane id=":556_3_7_0" index="0" speed="13.89" length="9.50" shape="682.99,788.73 682.99,798.23"/>
    </edge>
    <edge id=":556_3_8" function="internal">
        <lane id=":556_3_8_0" index="0" speed="13.89" length="5.28" shape="682.99,788.73 682.59,791.53 681.39,793.53 681.29,793.59"/>
    </edge>
    <edge id=":556_3_13" function="internal">
        <lane id=":556_3_13_0" index="0" speed="13.89" length="5.05" shape="681.29,793.59 679.39,794.73 676.58,795.12"/>
    </edge>
    <edge id=":556_3_9" function="internal">
        <lane id=":556_3_9_0" index="0" speed="13.89" length="5.00" shape="676.59,791.82 677.94,791.63 678.91,791.05 679.50,790.08 679.69,788.73"/>
    </edge>
    <edge id=":556_3_10" function="internal">
        <lane id=":556_3_10_0" index="0" speed="13.89" length="9.50" shape="676.59,791.82 686.09,791.83"/>
    </edge>
    <edge id=":556_3_11" function="internal">
        <lane id=":556_3_11_0" index="0" speed="13.89" length="10.33" shape="676.59,791.82 679.39,792.23 681.39,793.43 682.59,795.43 682.99,798.23"/>
    </edge>
    <edge id=":556_4_0" function="internal">
        <lane id=":556_4_0_0" index="0" speed="13.89" length="6.21" shape="679.69,746.01 679.41,744.66 678.55,743.69 677.13,743.11 675.14,742.91"/>
    </edge>
    <edge id=":556_4_1" function="internal">
        <lane id=":556_4_1_0" index="0" speed="13.89" length="10.28" shape="679.69,746.01 679.61,743.01 679.31,740.91 678.68,738.88 677.62,736.05"/>
    </edge>
    <edge id=":556_4_2" function="internal">
        <lane id=":556_4_2_0" index="0" speed="13.89" length="11.45" shape="680.71,734.89 681.81,737.90 682.51,740.33 682.88,742.83 682.99,746.01"/>
    </edge>
    <edge id=":556_4_3" function="internal">
        <lane id=":556_4_3_0" index="0" speed="13.89" length="5.93" shape="680.71,734.89 681.49,738.40 680.89,740.65"/>
    </edge>
    <edge id=":556_4_6" function="internal">
        <lane id=":556_4_6_0" index="0" speed="13.89" length="6.46" shape="680.89,740.65 680.82,740.91 678.71,742.41 675.14,742.91"/>
    </edge>
    <edge id=":556_4_4" function="internal">
        <lane id=":556_4_4_0" index="0" speed="13.89" length="5.51" shape="675.15,739.61 676.73,739.39 677.67,738.72 677.97,737.61 677.62,736.05"/>
    </edge>
    <edge id=":556_4_5" function="internal">
        <lane id=":556_4_5_0" index="0" speed="13.89" length="11.51" shape="675.15,739.61 678.58,740.01 681.03,741.22 682.50,743.22 682.99,746.01"/>
    </edge>
    <edge id=":556_5_0" function="internal">
        <lane id=":556_5_0_0" index="0" speed="13.89" length="1.95" shape="625.83,597.84 625.60,597.38 625.27,597.06 624.85,596.86 624.34,596.80"/>
    </edge>
    <edge id=":556_5_1" function="internal">
        <lane id=":556_5_1_0" index="0" speed="13.89" length="5.98" shape="624.34,593.50 625.90,593.70 627.18,594.29 628.19,595.29 628.92,596.68"/>
    </edge>
    <edge id=":560_1_0" function="internal">
        <lane id=":560_1_0_0" index="0" speed="13.89" length="7.91" shape="604.11,688.59 603.80,690.74 602.88,692.27 601.35,693.19 599.20,693.49"/>
    </edge>
    <edge id=":560_1_1" function="internal">
        <lane id=":560_1_1_0" index="0" speed="13.89" length="2.58" shape="599.21,690.19 599.91,690.10 600.41,689.80 600.71,689.30 600.81,688.59"/>
    </edge>
    <edge id=":560_2_0" function="internal">
        <lane id=":560_2_0_0" index="0" speed="13.89" length="2.58" shape="600.81,652.42 600.71,651.73 600.41,651.23 599.91,650.93 599.21,650.82"/>
    </edge>
    <edge id=":560_2_1" function="internal">
        <lane id=":560_2_1_0" index="0" speed="13.89" length="7.89" shape="599.22,647.52 601.36,647.83 602.89,648.75 603.80,650.28 604.11,652.42"/>
    </edge>
    <edge id=":577_1_0" function="internal">
        <lane id=":577_1_0_0" index="0" speed="13.89" length="2.09" shape="421.22,810.46 419.18,810.02"/>
    </edge>
    <edge id=":577_1_1" function="internal">
        <lane id=":577_1_1_0" index="0" speed="13.89" length="0.68" shape="420.55,807.01 421.22,807.16"/>
    </edge>
    <edge id=":577_2_0" function="internal">
        <lane id=":577_2_0_0" index="0" speed="13.89" length="5.00" shape="461.12,813.54 460.92,812.18 460.34,811.22 459.37,810.64 458.01,810.44"/>
    </edge>
    <edge id=":577_2_1" function="internal">
        <lane id=":577_2_1_0" index="0" speed="13.89" length="9.46" shape="461.12,813.54 461.39,810.86 462.23,808.69 463.63,807.03 465.58,805.88"/>
    </edge>
    <edge id=":577_2_2" function="internal">
        <lane id=":577_2_2_0" index="0" speed="13.89" length="5.51" shape="466.81,808.95 465.76,809.59 465.01,810.57 464.56,811.89 464.42,813.54"/>
    </edge>
    <edge id=":577_2_3" function="internal">
        <lane id=":577_2_3_0" index="0" speed="13.89" length="8.92" shape="466.81,808.95 458.01,810.44"/>
    </edge>
    <edge id=":577_2_4" function="internal">
        <lane id=":577_2_4_0" index="0" speed="13.89" length="7.68" shape="458.01,807.14 465.58,805.88"/>
    </edge>
    <edge id=":577_2_5" function="internal">
        <lane id=":577_2_5_0" index="0" speed="13.89" length="4.04" shape="458.01,807.14 460.81,807.54 461.85,808.17"/>
    </edge>
    <edge id=":577_2_6" function="internal">
        <lane id=":577_2_6_0" index="0" speed="13.89" length="6.28" shape="461.85,808.17 462.81,808.74 464.01,810.74 464.42,813.54"/>
    </edge>
    <edge id=":577_3_0" function="internal">
        <lane id=":577_3_0_0" index="0" speed="13.89" length="6.31" shape="506.49,794.84 505.13,795.13 504.16,796.00 503.57,797.46 503.38,799.50"/>
    </edge>
    <edge id=":577_3_1" function="internal">
        <lane id=":577_3_1_0" index="0" speed="13.89" length="10.35" shape="506.49,794.84 503.47,794.92 501.36,795.25 499.31,795.93 496.49,797.06"/>
    </edge>
    <edge id=":577_3_2" function="internal">
        <lane id=":577_3_2_0" index="0" speed="13.89" length="11.60" shape="495.27,794.00 498.28,792.83 500.75,792.07 503.28,791.66 506.49,791.54"/>
    </edge>
    <edge id=":577_3_3" function="internal">
        <lane id=":577_3_3_0" index="0" speed="13.89" length="5.98" shape="495.27,794.00 498.82,793.12 501.07,793.67"/>
    </edge>
    <edge id=":577_3_6" function="internal">
        <lane id=":577_3_6_0" index="0" speed="13.89" length="6.57" shape="501.07,793.67 501.36,793.74 502.88,795.87 503.38,799.50"/>
    </edge>
    <edge id=":577_3_4" function="internal">
        <lane id=":577_3_4_0" index="0" speed="13.89" length="5.55" shape="500.08,799.49 499.86,797.89 499.18,796.95 498.06,796.67 496.49,797.06"/>
    </edge>
    <edge id=":577_3_5" function="internal">
        <lane id=":577_3_5_0" index="0" speed="13.89" length="11.61" shape="500.08,799.49 500.48,796.01 501.69,793.52 503.69,792.03 506.49,791.54"/>
    </edge>
    <edge id=":649_1_0" function="internal">
        <lane id=":649_1_0_0" index="0" speed="13.89" length="5.65" shape="431.34,987.05 429.62,987.18 428.23,987.59 427.16,988.27 426.42,989.21"/>
    </edge>
    <edge id=":649_1_1" function="internal">
        <lane id=":649_1_1_0" index="0" speed="13.89" length="10.32" shape="431.34,987.05 428.54,986.65 426.54,985.45 425.34,983.45 424.94,980.65"/>
    </edge>
    <edge id=":649_1_2" function="internal">
        <lane id=":649_1_2_0" index="0" speed="13.89" length="5.00" shape="428.24,980.65 428.43,982.01 429.02,982.97 429.98,983.56 431.34,983.75"/>
    </edge>
    <edge id=":649_1_3" function="internal">
        <lane id=":649_1_3_0" index="0" speed="13.89" length="8.76" shape="428.24,980.65 426.42,989.21"/>
    </edge>
    <edge id=":649_1_4" function="internal">
        <lane id=":649_1_4_0" index="0" speed="13.89" length="7.15" shape="423.51,987.65 424.94,980.65"/>
    </edge>
    <edge id=":649_1_5" function="internal">
        <lane id=":649_1_5_0" index="0" speed="13.89" length="3.13" shape="423.51,987.65 424.78,985.95 425.60,985.37"/>
    </edge>
    <edge id=":649_1_6" function="internal">
        <lane id=":649_1_6_0" index="0" speed="13.89" length="6.08" shape="425.60,985.37 426.51,984.73 428.70,983.99 431.34,983.75"/>
    </edge>
    <edge id=":CB1_0" function="internal">
        <lane id=":CB1_0_0" index="0" speed="60.00" length="14.88" shape="-530.56,-1206.46 -534.00,-1209.13 -536.41,-1210.89 -538.91,-1212.51 -542.65,-1214.74"/>
        <lane id=":CB1_0_1" index="1" speed="60.00" length="14.88" shape="-528.54,-1209.07 -532.08,-1211.81 -534.55,-1213.62 -537.13,-1215.28 -540.97,-1217.58"/>
    </edge>
    <edge id=":CB1_2" function="internal">
        <lane id=":CB1_2_0" index="0" speed="60.00" length="6.31" shape="-528.54,-1209.07 -531.50,-1212.14 -532.24,-1214.04"/>
    </edge>
    <edge id=":CB1_8" function="internal">
        <lane id=":CB1_8_0" index="0" speed="60.00" length="9.29" shape="-532.24,-1214.04 -532.78,-1215.43 -532.37,-1218.93 -530.27,-1222.65"/>
    </edge>
    <edge id=":CB1_3" function="internal">
        <lane id=":CB1_3_0" index="0" speed="60.00" length="4.99" shape="-525.04,-1218.62 -525.71,-1217.43 -525.84,-1216.31 -525.43,-1215.26 -524.48,-1214.28"/>
    </edge>
    <edge id=":CB1_4" function="internal">
        <lane id=":CB1_4_0" index="0" speed="60.00" length="15.19" shape="-527.66,-1220.64 -530.65,-1217.63 -533.87,-1216.12 -537.31,-1216.10 -540.97,-1217.58"/>
    </edge>
    <edge id=":CB1_5" function="internal">
        <lane id=":CB1_5_0" index="0" speed="60.00" length="5.47" shape="-537.61,-1223.26 -536.38,-1222.79 -535.18,-1222.87 -534.01,-1223.49 -532.89,-1224.66"/>
    </edge>
    <edge id=":CB1_6" function="internal">
        <lane id=":CB1_6_0" index="0" speed="60.00" length="15.72" shape="-537.61,-1223.26 -533.56,-1220.84 -530.84,-1219.08 -528.22,-1217.17 -524.48,-1214.28"/>
        <lane id=":CB1_6_1" index="1" speed="60.00" length="15.72" shape="-539.29,-1220.42 -535.34,-1218.06 -532.69,-1216.35 -530.15,-1214.49 -526.51,-1211.67"/>
    </edge>
    <edge id=":CB2_0" function="internal">
        <lane id=":CB2_0_0" index="0" speed="60.00" length="11.34" shape="-356.28,-1072.23 -359.34,-1073.83 -361.38,-1075.03 -363.32,-1076.39 -366.06,-1078.50"/>
        <lane id=":CB2_0_1" index="1" speed="60.00" length="11.34" shape="-354.77,-1075.17 -357.67,-1076.68 -359.60,-1077.81 -361.44,-1079.11 -364.03,-1081.11"/>
    </edge>
    <edge id=":CB2_2" function="internal">
        <lane id=":CB2_2_0" index="0" speed="36.95" length="4.78" shape="-354.77,-1075.17 -357.18,-1077.12 -357.74,-1078.70"/>
    </edge>
    <edge id=":CB2_8" function="internal">
        <lane id=":CB2_8_0" index="0" speed="36.95" length="8.95" shape="-357.74,-1078.70 -358.13,-1079.76 -357.62,-1083.09 -355.66,-1087.09"/>
    </edge>
    <edge id=":CB2_3" function="internal">
        <lane id=":CB2_3_0" index="0" speed="36.95" length="5.18" shape="-352.86,-1085.35 -353.45,-1084.02 -353.46,-1082.85 -352.89,-1081.86 -351.74,-1081.03"/>
    </edge>
    <edge id=":CB2_4" function="internal">
        <lane id=":CB2_4_0" index="0" speed="36.95" length="13.84" shape="-352.86,-1085.35 -355.58,-1081.81 -358.35,-1079.93 -361.17,-1079.69 -364.03,-1081.11"/>
    </edge>
    <edge id=":CB2_5" function="internal">
        <lane id=":CB2_5_0" index="0" speed="36.95" length="5.13" shape="-359.98,-1086.32 -358.74,-1085.61 -357.61,-1085.50 -356.58,-1086.00 -355.66,-1087.09"/>
    </edge>
    <edge id=":CB2_6" function="internal">
        <lane id=":CB2_6_0" index="0" speed="60.00" length="10.10" shape="-359.98,-1086.32 -351.74,-1081.03"/>
        <lane id=":CB2_6_1" index="1" speed="60.00" length="10.10" shape="-362.01,-1083.71 -359.56,-1081.82 -357.82,-1080.60 -355.99,-1079.53 -353.25,-1078.10"/>
    </edge>
    <edge id=":CB3_0" function="internal">
        <lane id=":CB3_0_0" index="0" speed="60.00" length="12.99" shape="-228.74,-1004.22 -231.33,-1006.85 -233.24,-1008.52 -235.37,-1009.90 -238.63,-1011.63"/>
        <lane id=":CB3_0_1" index="1" speed="60.00" length="12.99" shape="-226.37,-1006.52 -229.18,-1009.37 -231.26,-1011.19 -233.58,-1012.68 -237.11,-1014.56"/>
    </edge>
    <edge id=":CB3_2" function="internal">
        <lane id=":CB3_2_0" index="0" speed="60.00" length="6.01" shape="-226.37,-1006.52 -228.69,-1009.68 -229.24,-1011.70"/>
    </edge>
    <edge id=":CB3_8" function="internal">
        <lane id=":CB3_8_0" index="0" speed="60.00" length="8.53" shape="-229.24,-1011.70 -229.57,-1012.91 -229.01,-1016.22 -227.01,-1019.59"/>
    </edge>
    <edge id=":CB3_3" function="internal">
        <lane id=":CB3_3_0" index="0" speed="60.00" length="4.85" shape="-221.85,-1015.48 -222.52,-1014.35 -222.70,-1013.25 -222.41,-1012.17 -221.64,-1011.12"/>
    </edge>
    <edge id=":CB3_4" function="internal">
        <lane id=":CB3_4_0" index="0" speed="60.00" length="14.29" shape="-224.43,-1017.53 -227.24,-1014.82 -230.29,-1013.42 -233.58,-1013.33 -237.11,-1014.56"/>
    </edge>
    <edge id=":CB3_5" function="internal">
        <lane id=":CB3_5_0" index="0" speed="60.00" length="5.11" shape="-234.09,-1020.43 -232.87,-1020.02 -231.72,-1020.09 -230.62,-1020.63 -229.59,-1021.65"/>
    </edge>
    <edge id=":CB3_6" function="internal">
        <lane id=":CB3_6_0" index="0" speed="60.00" length="15.14" shape="-234.09,-1020.43 -229.99,-1018.25 -227.30,-1016.53 -224.90,-1014.42 -221.64,-1011.12"/>
        <lane id=":CB3_6_1" index="1" speed="60.00" length="15.14" shape="-235.60,-1017.49 -231.78,-1015.47 -229.28,-1013.86 -227.04,-1011.90 -224.00,-1008.82"/>
    </edge>
    <edge id=":CB4_0" function="internal">
        <lane id=":CB4_0_0" index="0" speed="60.00" length="20.79" shape="-90.19,-861.17 -94.32,-865.60 -97.26,-868.76 -100.23,-871.91 -104.44,-876.27"/>
        <lane id=":CB4_0_1" index="1" speed="60.00" length="20.79" shape="-87.78,-863.42 -91.92,-867.86 -94.88,-871.04 -97.86,-874.20 -102.07,-878.57"/>
    </edge>
    <edge id=":CB4_2" function="internal">
        <lane id=":CB4_2_0" index="0" speed="60.00" length="9.43" shape="-87.78,-863.42 -92.60,-869.93 -92.75,-871.25"/>
    </edge>
    <edge id=":CB4_8" function="internal">
        <lane id=":CB4_8_0" index="0" speed="60.00" length="16.14" shape="-92.75,-871.25 -93.13,-874.58 -89.38,-877.38 -81.33,-878.33"/>
    </edge>
    <edge id=":CB4_3" function="internal">
        <lane id=":CB4_3_0" index="0" speed="60.00" length="6.50" shape="-81.32,-871.73 -83.37,-871.49 -84.32,-870.78 -84.19,-869.59 -82.96,-867.94"/>
    </edge>
    <edge id=":CB4_4" function="internal">
        <lane id=":CB4_4_0" index="0" speed="60.00" length="21.35" shape="-81.33,-875.03 -89.10,-875.24 -95.15,-875.90 -99.48,-877.01 -102.07,-878.57"/>
    </edge>
    <edge id=":CB4_5" function="internal">
        <lane id=":CB4_5_0" index="0" speed="60.00" length="16.19" shape="-97.34,-883.17 -95.77,-882.48 -92.58,-882.00 -87.77,-881.72 -81.34,-881.63"/>
    </edge>
    <edge id=":CB4_6" function="internal">
        <lane id=":CB4_6_0" index="0" speed="60.00" length="20.91" shape="-97.34,-883.17 -93.11,-878.79 -90.10,-875.60 -87.11,-872.39 -82.96,-867.94"/>
        <lane id=":CB4_6_1" index="1" speed="60.00" length="20.91" shape="-99.71,-880.87 -95.49,-876.49 -92.49,-873.32 -89.51,-870.12 -85.37,-865.68"/>
    </edge>
    <edge id=":CB5_0" function="internal">
        <lane id=":CB5_0_0" index="0" speed="60.00" length="10.30" shape="66.57,-694.54 64.29,-696.63 62.74,-698.08 61.25,-699.58 59.12,-701.82"/>
        <lane id=":CB5_0_1" index="1" speed="60.00" length="10.30" shape="68.80,-696.97 66.57,-699.01 65.07,-700.42 63.61,-701.89 61.53,-704.08"/>
    </edge>
    <edge id=":CB5_2" function="internal">
        <lane id=":CB5_2_0" index="0" speed="36.95" length="5.12" shape="68.80,-696.97 66.81,-699.69 66.67,-701.43"/>
    </edge>
    <edge id=":CB5_8" function="internal">
        <lane id=":CB5_8_0" index="0" speed="36.95" length="9.13" shape="66.67,-701.43 66.58,-702.57 68.11,-705.60 71.40,-708.80"/>
    </edge>
    <edge id=":CB5_3" function="internal">
        <lane id=":CB5_3_0" index="0" speed="36.95" length="5.20" shape="73.43,-706.21 72.43,-705.15 72.06,-704.07 72.34,-702.96 73.27,-701.83"/>
    </edge>
    <edge id=":CB5_4" function="internal">
        <lane id=":CB5_4_0" index="0" speed="36.95" length="13.29" shape="73.43,-706.21 69.69,-703.72 66.46,-702.53 63.74,-702.65 61.53,-704.08"/>
    </edge>
    <edge id=":CB5_5" function="internal">
        <lane id=":CB5_5_0" index="0" speed="36.95" length="5.64" shape="66.35,-708.59 67.42,-707.79 68.62,-707.56 69.95,-707.90 71.40,-708.80"/>
    </edge>
    <edge id=":CB5_6" function="internal">
        <lane id=":CB5_6_0" index="0" speed="60.00" length="9.80" shape="66.35,-708.59 73.27,-701.83"/>
        <lane id=":CB5_6_1" index="1" speed="60.00" length="9.80" shape="63.94,-706.34 71.03,-699.40"/>
    </edge>
    <edge id=":CB6_0" function="internal">
        <lane id=":CB6_0_0" index="0" speed="60.00" length="12.47" shape="173.05,-599.60 169.66,-601.38 167.34,-602.62 165.19,-604.10 162.32,-606.59"/>
        <lane id=":CB6_0_1" index="1" speed="60.00" length="12.47" shape="174.63,-602.50 171.45,-604.16 169.27,-605.31 167.25,-606.69 164.55,-609.02"/>
    </edge>
    <edge id=":CB6_2" function="internal">
        <lane id=":CB6_2_0" index="0" speed="36.95" length="5.71" shape="174.63,-602.50 171.14,-605.23 170.74,-606.44"/>
    </edge>
    <edge id=":CB6_8" function="internal">
        <lane id=":CB6_8_0" index="0" speed="36.95" length="10.95" shape="170.74,-606.44 170.14,-608.27 171.61,-611.61 175.56,-615.25"/>
    </edge>
    <edge id=":CB6_3" function="internal">
        <lane id=":CB6_3_0" index="0" speed="36.95" length="5.65" shape="177.51,-612.59 176.31,-611.43 175.96,-610.33 176.45,-609.28 177.79,-608.29"/>
    </edge>
    <edge id=":CB6_4" function="internal">
        <lane id=":CB6_4_0" index="0" speed="36.95" length="14.33" shape="177.51,-612.59 173.18,-609.79 169.58,-608.27 166.70,-608.01 164.55,-609.02"/>
    </edge>
    <edge id=":CB6_5" function="internal">
        <lane id=":CB6_5_0" index="0" speed="36.95" length="7.20" shape="169.01,-613.88 170.20,-613.25 171.69,-613.27 173.47,-613.94 175.56,-615.25"/>
    </edge>
    <edge id=":CB6_6" function="internal">
        <lane id=":CB6_6_0" index="0" speed="60.00" length="10.86" shape="169.01,-613.88 171.36,-611.87 173.13,-610.70 175.03,-609.72 177.79,-608.29"/>
        <lane id=":CB6_6_1" index="1" speed="60.00" length="10.86" shape="166.78,-611.45 169.30,-609.28 171.20,-608.01 173.24,-606.94 176.21,-605.39"/>
    </edge>
    <edge id=":CB7_0" function="internal">
        <lane id=":CB7_0_0" index="0" speed="60.00" length="9.93" shape="846.66,-358.18 836.73,-358.19"/>
        <lane id=":CB7_0_1" index="1" speed="60.00" length="9.93" shape="846.66,-361.48 836.74,-361.49"/>
    </edge>
    <edge id=":CB7_2" function="internal">
        <lane id=":CB7_2_0" index="0" speed="36.95" length="3.48" shape="846.66,-361.48 844.78,-362.12 843.73,-363.18"/>
    </edge>
    <edge id=":CB7_8" function="internal">