<?xml version="1.0" encoding="UTF-8"?>

<configuration xmlns:xsi="http://www.w3.org/2001/XMLSchema-instance" xsi:noNamespaceSchemaLocation="http://sumo.sf.net/xsd/sumoConfiguration.xsd">

    <input>
        <net-file value="DJMap_v1.2.net.xml"/>
        <additional-files value="DJMap_veh.xml"/>
        <route-files value="DJMap_rot.xml"/>
        <gui-settings-file value="DJMap_settings.xml"/>
    </input>

</configuration>