<?xml version="1.0" encoding="UTF-8"?>

<!-- generated on 07/13/16 21:31:04 by SUMO netconvert Version 0.25.0
<?xml version="1.0" encoding="UTF-8"?>

<configuration xmlns:xsi="http://www.w3.org/2001/XMLSchema-instance" xsi:noNamespaceSchemaLocation="http://sumo.dlr.de/xsd/netconvertConfiguration.xsd">

    <input>
        <sumo-net-file value="D:\Coursework\Thesis\sumo-win32-0.25.0\sumo-0.25.0\DJProject\DJmap_v1.1.net.xml"/>
    </input>

    <output>
        <plain-output-prefix value="true"/>
    </output>

    <processing>
        <no-turnarounds value="true"/>
        <offset.disable-normalization value="true"/>
        <lefthand value="false"/>
        <junctions.corner-detail value="0"/>
    </processing>

</configuration>
-->

<connections version="0.25" xmlns:xsi="http://www.w3.org/2001/XMLSchema-instance" xsi:noNamespaceSchemaLocation="http://sumo.dlr.de/xsd/connections_file.xsd">
    <connection from="DD15" to="gneE402" fromLane="0" toLane="0"/>
    <connection from="DD15" to="gneE315" fromLane="0" toLane="0"/>
    <connection from="DD15" to="gneE315" fromLane="1" toLane="1"/>

    <connection from="GJN0" to="gneE181" fromLane="0" toLane="0"/>
    <connection from="GJN0" to="gneE181" fromLane="1" toLane="1"/>
    <connection from="GJN0" to="gneE186" fromLane="1" toLane="0"/>

    <connection from="gneE10" to="gneE120" fromLane="0" toLane="0"/>
    <connection from="gneE10" to="gneE508" fromLane="0" toLane="0"/>
    <connection from="gneE10" to="gneE508" fromLane="1" toLane="1"/>

    <connection from="gneE100" to="gneE102" fromLane="0" toLane="0"/>

    <connection from="gneE101" to="gneE93" fromLane="0" toLane="0"/>
    <connection from="gneE101" to="gneE94" fromLane="0" toLane="0"/>

    <connection from="gneE102" to="gneE112" fromLane="0" toLane="0"/>
    <connection from="gneE102" to="gneE106" fromLane="0" toLane="0"/>

    <connection from="gneE103" to="gneE101" fromLane="0" toLane="0"/>

    <connection from="gneE106" to="gneE110" fromLane="0" toLane="0"/>
    <connection from="gneE106" to="gneE108" fromLane="0" toLane="0"/>

    <connection from="gneE107" to="gneE103" fromLane="0" toLane="0"/>
    <connection from="gneE107" to="gneE112" fromLane="0" toLane="0"/>

    <connection from="gneE109" to="gneE107" fromLane="0" toLane="0"/>
    <connection from="gneE109" to="gneE110" fromLane="0" toLane="0"/>

    <connection from="gneE11" to="gneE125" fromLane="0" toLane="0"/>
    <connection from="gneE11" to="gneE9" fromLane="0" toLane="0"/>
    <connection from="gneE11" to="gneE9" fromLane="1" toLane="1"/>

    <connection from="gneE110" to="gneE75" fromLane="0" toLane="0"/>
    <connection from="gneE110" to="gneE81" fromLane="0" toLane="0"/>
    <connection from="gneE110" to="gneE73" fromLane="0" toLane="0"/>

    <connection from="gneE111" to="gneE108" fromLane="0" toLane="0"/>
    <connection from="gneE111" to="gneE107" fromLane="0" toLane="0"/>

    <connection from="gneE112" to="gneE116" fromLane="0" toLane="0"/>
    <connection from="gneE112" to="gneE114" fromLane="0" toLane="0"/>

    <connection from="gneE113" to="gneE106" fromLane="0" toLane="0"/>
    <connection from="gneE113" to="gneE103" fromLane="0" toLane="0"/>

    <connection from="gneE114" to="gneE89" fromLane="0" toLane="0"/>
    <connection from="gneE114" to="gneE74" fromLane="0" toLane="0"/>

    <connection from="gneE115" to="gneE113" fromLane="0" toLane="0"/>
    <connection from="gneE115" to="gneE116" fromLane="0" toLane="0"/>

    <connection from="gneE117" to="gneE114" fromLane="0" toLane="0"/>
    <connection from="gneE117" to="gneE113" fromLane="0" toLane="0"/>

    <connection from="gneE121" to="gneE508" fromLane="0" toLane="0"/>
    <connection from="gneE121" to="gneE11" fromLane="0" toLane="1"/>

    <connection from="gneE122" to="gneE128" fromLane="0" toLane="0"/>
    <connection from="gneE122" to="gneE124" fromLane="0" toLane="0"/>
    <connection from="gneE122" to="gneE126" fromLane="0" toLane="0"/>

    <connection from="gneE123" to="gneE95" fromLane="0" toLane="0"/>
    <connection from="gneE123" to="gneE96" fromLane="0" toLane="0"/>

    <connection from="gneE124" to="gneE9" fromLane="0" toLane="0"/>
    <connection from="gneE124" to="gneE10" fromLane="0" toLane="1"/>

    <connection from="gneE125" to="gneE126" fromLane="0" toLane="0"/>
    <connection from="gneE125" to="gneE123" fromLane="0" toLane="0"/>
    <connection from="gneE125" to="gneE128" fromLane="0" toLane="0"/>

    <connection from="gneE127" to="gneE123" fromLane="0" toLane="0"/>
    <connection from="gneE127" to="gneE128" fromLane="0" toLane="0"/>
    <connection from="gneE127" to="gneE124" fromLane="0" toLane="0"/>

    <connection from="gneE129" to="gneE124" fromLane="0" toLane="0"/>
    <connection from="gneE129" to="gneE126" fromLane="0" toLane="0"/>
    <connection from="gneE129" to="gneE123" fromLane="0" toLane="0"/>

    <connection from="gneE130" to="gneE53" fromLane="0" toLane="0"/>
    <connection from="gneE130" to="gneE4" fromLane="0" toLane="0"/>
    <connection from="gneE130" to="gneE4" fromLane="1" toLane="1"/>
    <connection from="gneE130" to="gneE54" fromLane="1" toLane="0"/>

    <connection from="gneE131" to="gneE42" fromLane="0" toLane="0"/>
    <connection from="gneE131" to="gneE48" fromLane="0" toLane="0"/>
    <connection from="gneE131" to="gneE48" fromLane="1" toLane="1"/>
    <connection from="gneE131" to="gneE132" fromLane="1" toLane="1"/>

    <connection from="gneE132" to="gneE50" fromLane="0" toLane="0"/>
    <connection from="gneE132" to="gneE46" fromLane="0" toLane="0"/>
    <connection from="gneE132" to="gneE46" fromLane="1" toLane="1"/>
    <connection from="gneE132" to="gneE52" fromLane="1" toLane="0"/>

    <connection from="gneE133" to="gneE130" fromLane="0" toLane="0"/>
    <connection from="gneE133" to="gneE42" fromLane="1" toLane="1"/>
    <connection from="gneE133" to="gneE48" fromLane="1" toLane="1"/>

    <connection from="gneE136" to="gneE152" fromLane="0" toLane="0"/>
    <connection from="gneE136" to="gneE138" fromLane="0" toLane="0"/>
    <connection from="gneE136" to="gneE138" fromLane="1" toLane="1"/>

    <connection from="gneE137" to="gneE514" fromLane="0" toLane="0"/>
    <connection from="gneE137" to="gneE514" fromLane="1" toLane="1"/>
    <connection from="gneE137" to="gneE150" fromLane="1" toLane="0"/>

    <connection from="gneE138" to="gneE140" fromLane="0" toLane="0"/>
    <connection from="gneE138" to="gneE140" fromLane="1" toLane="1"/>
    <connection from="gneE138" to="gneE158" fromLane="1" toLane="0"/>

    <connection from="gneE139" to="gneE137" fromLane="0" toLane="0"/>
    <connection from="gneE139" to="gneE137" fromLane="1" toLane="1"/>
    <connection from="gneE139" to="gneE152" fromLane="1" toLane="0"/>

    <connection from="gneE140" to="gneE142" fromLane="0" toLane="0"/>
    <connection from="gneE140" to="gneE142" fromLane="1" toLane="1"/>
    <connection from="gneE140" to="gneE585" fromLane="1" toLane="0"/>

    <connection from="gneE141" to="gneE158" fromLane="0" toLane="0"/>
    <connection from="gneE141" to="gneE139" fromLane="0" toLane="0"/>
    <connection from="gneE141" to="gneE139" fromLane="1" toLane="1"/>

    <connection from="gneE142" to="gneE652" fromLane="0" toLane="0"/>
    <connection from="gneE142" to="gneE144" fromLane="0" toLane="0"/>
    <connection from="gneE142" to="gneE144" fromLane="1" toLane="1"/>
    <connection from="gneE142" to="gneE658" fromLane="1" toLane="0"/>

    <connection from="gneE143" to="gneE585" fromLane="0" toLane="0"/>
    <connection from="gneE143" to="gneE141" fromLane="0" toLane="0"/>
    <connection from="gneE143" to="gneE141" fromLane="1" toLane="1"/>

    <connection from="gneE144" to="gneE146" fromLane="0" toLane="0"/>
    <connection from="gneE144" to="gneE146" fromLane="1" toLane="1"/>
    <connection from="gneE144" to="gneE654" fromLane="1" toLane="0"/>

    <connection from="gneE145" to="gneE658" fromLane="0" toLane="0"/>
    <connection from="gneE145" to="gneE143" fromLane="0" toLane="0"/>
    <connection from="gneE145" to="gneE143" fromLane="1" toLane="1"/>
    <connection from="gneE145" to="gneE652" fromLane="1" toLane="0"/>

    <connection from="gneE146" to="gneE148" fromLane="0" toLane="0"/>
    <connection from="gneE146" to="gneE148" fromLane="1" toLane="1"/>

    <connection from="gneE147" to="gneE654" fromLane="0" toLane="0"/>
    <connection from="gneE147" to="gneE145" fromLane="0" toLane="0"/>
    <connection from="gneE147" to="gneE145" fromLane="1" toLane="1"/>

    <connection from="gneE148" to="gneE201" fromLane="0" toLane="0"/>
    <connection from="gneE148" to="gneE202" fromLane="1" toLane="1"/>

    <connection from="gneE149" to="gneE147" fromLane="0" toLane="0"/>
    <connection from="gneE149" to="gneE147" fromLane="1" toLane="1"/>

    <connection from="gneE151" to="gneE136" fromLane="0" toLane="0"/>
    <connection from="gneE151" to="gneE514" fromLane="0" toLane="1"/>

    <connection from="gneE152" to="gneE154" fromLane="0" toLane="0"/>
    <connection from="gneE152" to="gneE156" fromLane="0" toLane="0"/>

    <connection from="gneE153" to="gneE138" fromLane="0" toLane="0"/>
    <connection from="gneE153" to="gneE137" fromLane="0" toLane="1"/>

    <connection from="gneE155" to="gneE156" fromLane="0" toLane="0"/>
    <connection from="gneE155" to="gneE153" fromLane="0" toLane="0"/>

    <connection from="gneE157" to="gneE153" fromLane="0" toLane="0"/>
    <connection from="gneE157" to="gneE154" fromLane="0" toLane="0"/>

    <connection from="gneE158" to="gneE174" fromLane="0" toLane="0"/>
    <connection from="gneE158" to="gneE160" fromLane="0" toLane="0"/>

    <connection from="gneE159" to="gneE139" fromLane="0" toLane="0"/>
    <connection from="gneE159" to="gneE140" fromLane="0" toLane="1"/>

    <connection from="gneE16" to="gneE18" fromLane="0" toLane="0"/>
    <connection from="gneE16" to="gneE18" fromLane="1" toLane="1"/>
    <connection from="gneE16" to="E_KCRC" fromLane="1" toLane="0"/>

    <connection from="gneE160" to="gneE162" fromLane="0" toLane="0"/>
    <connection from="gneE160" to="gneE172" fromLane="0" toLane="0"/>

    <connection from="gneE161" to="gneE159" fromLane="0" toLane="0"/>
    <connection from="gneE161" to="gneE174" fromLane="0" toLane="0"/>

    <connection from="gneE162" to="gneE164" fromLane="0" toLane="0"/>
    <connection from="gneE162" to="JJ1" fromLane="0" toLane="0"/>

    <connection from="gneE163" to="gneE172" fromLane="0" toLane="0"/>
    <connection from="gneE163" to="gneE161" fromLane="0" toLane="0"/>

    <connection from="gneE164" to="gneE20" fromLane="0" toLane="0"/>
    <connection from="gneE164" to="gneE19" fromLane="0" toLane="1"/>

    <connection from="gneE165" to="JJ1" fromLane="0" toLane="0"/>
    <connection from="gneE165" to="gneE163" fromLane="0" toLane="0"/>

    <connection from="gneE167" to="gneE16" fromLane="0" toLane="0"/>
    <connection from="gneE167" to="gneE511" fromLane="0" toLane="1"/>

    <connection from="gneE169" to="gneE17" fromLane="0" toLane="0"/>
    <connection from="gneE169" to="gneE18" fromLane="0" toLane="1"/>

    <connection from="gneE17" to="gneE511" fromLane="0" toLane="0"/>
    <connection from="gneE17" to="gneE511" fromLane="1" toLane="1"/>
    <connection from="gneE17" to="gneE166" fromLane="1" toLane="0"/>

    <connection from="gneE171" to="gneE163" fromLane="0" toLane="0"/>
    <connection from="gneE171" to="gneE164" fromLane="0" toLane="0"/>

    <connection from="gneE173" to="gneE161" fromLane="0" toLane="0"/>
    <connection from="gneE173" to="gneE162" fromLane="0" toLane="0"/>

    <connection from="gneE175" to="gneE160" fromLane="0" toLane="0"/>
    <connection from="gneE175" to="gneE159" fromLane="0" toLane="0"/>

    <connection from="gneE178" to="gneE184" fromLane="0" toLane="0"/>
    <connection from="gneE178" to="gneE180" fromLane="0" toLane="0"/>
    <connection from="gneE178" to="gneE180" fromLane="1" toLane="1"/>

    <connection from="gneE179" to="gneE21" fromLane="0" toLane="0"/>
    <connection from="gneE179" to="gneE22" fromLane="1" toLane="1"/>

    <connection from="gneE18" to="gneE165" fromLane="0" toLane="0"/>
    <connection from="gneE18" to="gneE20" fromLane="0" toLane="0"/>
    <connection from="gneE18" to="gneE20" fromLane="1" toLane="1"/>

    <connection from="gneE180" to="gneE186" fromLane="0" toLane="0"/>
    <connection from="gneE180" to="gneE182" fromLane="0" toLane="0"/>
    <connection from="gneE180" to="gneE182" fromLane="1" toLane="1"/>

    <connection from="gneE181" to="gneE179" fromLane="0" toLane="0"/>
    <connection from="gneE181" to="gneE179" fromLane="1" toLane="1"/>
    <connection from="gneE181" to="gneE184" fromLane="1" toLane="0"/>

    <connection from="gneE185" to="gneE180" fromLane="0" toLane="0"/>
    <connection from="gneE185" to="gneE179" fromLane="0" toLane="1"/>

    <connection from="gneE187" to="gneE182" fromLane="0" toLane="0"/>
    <connection from="gneE187" to="gneE181" fromLane="0" toLane="1"/>

    <connection from="gneE188" to="gneE624" fromLane="0" toLane="0"/>
    <connection from="gneE188" to="gneE190" fromLane="1" toLane="1"/>
    <connection from="gneE188" to="gneE590" fromLane="1" toLane="0"/>

    <connection from="gneE19" to="E_KCRC" fromLane="0" toLane="0"/>
    <connection from="gneE19" to="gneE17" fromLane="0" toLane="0"/>
    <connection from="gneE19" to="gneE17" fromLane="1" toLane="1"/>

    <connection from="gneE190" to="gneE192" fromLane="0" toLane="0"/>
    <connection from="gneE190" to="gneE192" fromLane="1" toLane="1"/>
    <connection from="gneE190" to="gneE592" fromLane="1" toLane="0"/>

    <connection from="gneE191" to="gneE590" fromLane="0" toLane="0"/>
    <connection from="gneE191" to="gneE189" fromLane="0" toLane="0"/>
    <connection from="gneE191" to="gneE189" fromLane="1" toLane="1"/>
    <connection from="gneE191" to="gneE624" fromLane="1" toLane="1"/>

    <connection from="gneE192" to="gneE194" fromLane="0" toLane="0"/>
    <connection from="gneE192" to="gneE194" fromLane="1" toLane="1"/>
    <connection from="gneE192" to="gneE602" fromLane="1" toLane="0"/>

    <connection from="gneE193" to="gneE592" fromLane="0" toLane="0"/>
    <connection from="gneE193" to="gneE191" fromLane="0" toLane="0"/>
    <connection from="gneE193" to="gneE191" fromLane="1" toLane="1"/>

    <connection from="gneE194" to="gneE196" fromLane="0" toLane="0"/>
    <connection from="gneE194" to="gneE196" fromLane="1" toLane="1"/>
    <connection from="gneE194" to="gneE601" fromLane="1" toLane="0"/>

    <connection from="gneE195" to="gneE602" fromLane="0" toLane="0"/>
    <connection from="gneE195" to="gneE193" fromLane="0" toLane="0"/>
    <connection from="gneE195" to="gneE193" fromLane="1" toLane="1"/>

    <connection from="gneE196" to="gneE608" fromLane="0" toLane="0"/>
    <connection from="gneE196" to="gneE198" fromLane="0" toLane="0"/>
    <connection from="gneE196" to="gneE198" fromLane="1" toLane="1"/>
    <connection from="gneE196" to="gneE606" fromLane="1" toLane="0"/>

    <connection from="gneE197" to="gneE601" fromLane="0" toLane="0"/>
    <connection from="gneE197" to="gneE195" fromLane="0" toLane="0"/>
    <connection from="gneE197" to="gneE195" fromLane="1" toLane="1"/>

    <connection from="gneE198" to="gneE200" fromLane="0" toLane="0"/>
    <connection from="gneE198" to="gneE200" fromLane="1" toLane="1"/>
    <connection from="gneE198" to="gneE622" fromLane="1" toLane="0"/>

    <connection from="gneE199" to="gneE606" fromLane="0" toLane="0"/>
    <connection from="gneE199" to="gneE197" fromLane="0" toLane="0"/>
    <connection from="gneE199" to="gneE197" fromLane="1" toLane="1"/>
    <connection from="gneE199" to="gneE608" fromLane="1" toLane="0"/>

    <connection from="gneE20" to="gneE22" fromLane="0" toLane="0"/>
    <connection from="gneE20" to="gneE22" fromLane="1" toLane="1"/>
    <connection from="gneE20" to="gneE178" fromLane="1" toLane="1"/>

    <connection from="gneE200" to="gneE202" fromLane="0" toLane="0"/>
    <connection from="gneE200" to="gneE202" fromLane="1" toLane="1"/>
    <connection from="gneE200" to="gneE149" fromLane="1" toLane="1"/>

    <connection from="gneE201" to="gneE622" fromLane="0" toLane="0"/>
    <connection from="gneE201" to="gneE199" fromLane="0" toLane="0"/>
    <connection from="gneE201" to="gneE199" fromLane="1" toLane="1"/>

    <connection from="gneE202" to="gneE204" fromLane="0" toLane="0"/>
    <connection from="gneE202" to="gneE204" fromLane="1" toLane="1"/>
    <connection from="gneE202" to="gneE588" fromLane="1" toLane="0"/>

    <connection from="gneE203" to="gneE149" fromLane="0" toLane="0"/>
    <connection from="gneE203" to="gneE201" fromLane="0" toLane="0"/>
    <connection from="gneE203" to="gneE201" fromLane="1" toLane="1"/>

    <connection from="gneE204" to="gneE206" fromLane="0" toLane="0"/>
    <connection from="gneE204" to="gneE206" fromLane="1" toLane="1"/>
    <connection from="gneE204" to="gneE586" fromLane="1" toLane="0"/>

    <connection from="gneE205" to="gneE588" fromLane="0" toLane="0"/>
    <connection from="gneE205" to="gneE203" fromLane="0" toLane="0"/>
    <connection from="gneE205" to="gneE203" fromLane="1" toLane="1"/>

    <connection from="gneE206" to="gneE272" fromLane="0" toLane="0"/>
    <connection from="gneE206" to="gneE208" fromLane="0" toLane="0"/>
    <connection from="gneE206" to="gneE208" fromLane="1" toLane="1"/>
    <connection from="gneE206" to="gneE271" fromLane="1" toLane="1"/>

    <connection from="gneE207" to="gneE586" fromLane="0" toLane="0"/>
    <connection from="gneE207" to="gneE205" fromLane="0" toLane="0"/>
    <connection from="gneE207" to="gneE205" fromLane="1" toLane="1"/>

    <connection from="gneE208" to="gneE210" fromLane="0" toLane="0"/>
    <connection from="gneE208" to="gneE210" fromLane="1" toLane="1"/>
    <connection from="gneE208" to="gneE218" fromLane="1" toLane="0"/>

    <connection from="gneE209" to="gneE271" fromLane="0" toLane="0"/>
    <connection from="gneE209" to="gneE207" fromLane="0" toLane="0"/>
    <connection from="gneE209" to="gneE207" fromLane="1" toLane="1"/>
    <connection from="gneE209" to="gneE272" fromLane="1" toLane="1"/>

    <connection from="gneE21" to="gneE19" fromLane="0" toLane="0"/>
    <connection from="gneE21" to="gneE19" fromLane="1" toLane="1"/>
    <connection from="gneE21" to="gneE165" fromLane="1" toLane="0"/>

    <connection from="gneE210" to="gneE212" fromLane="0" toLane="0"/>
    <connection from="gneE210" to="gneE212" fromLane="1" toLane="1"/>
    <connection from="gneE210" to="gneE221" fromLane="1" toLane="0"/>

    <connection from="gneE211" to="gneE218" fromLane="0" toLane="0"/>
    <connection from="gneE211" to="gneE209" fromLane="0" toLane="0"/>
    <connection from="gneE211" to="gneE209" fromLane="1" toLane="1"/>

    <connection from="gneE212" to="gneE224" fromLane="0" toLane="0"/>
    <connection from="gneE212" to="gneE224" fromLane="1" toLane="1"/>

    <connection from="gneE213" to="gneE221" fromLane="0" toLane="0"/>
    <connection from="gneE213" to="gneE211" fromLane="0" toLane="0"/>
    <connection from="gneE213" to="gneE211" fromLane="1" toLane="1"/>

    <connection from="gneE218" to="gneE220" fromLane="0" toLane="0"/>
    <connection from="gneE218" to="gneE222" fromLane="0" toLane="0"/>

    <connection from="gneE219" to="gneE209" fromLane="0" toLane="0"/>
    <connection from="gneE219" to="gneE210" fromLane="0" toLane="1"/>

    <connection from="gneE22" to="gneE544" fromLane="0" toLane="0"/>
    <connection from="gneE22" to="gneE24" fromLane="0" toLane="0"/>
    <connection from="gneE22" to="gneE24" fromLane="1" toLane="1"/>

    <connection from="gneE220" to="gneE211" fromLane="0" toLane="0"/>
    <connection from="gneE220" to="gneE212" fromLane="0" toLane="1"/>

    <connection from="gneE221" to="gneE222" fromLane="0" toLane="0"/>
    <connection from="gneE221" to="gneE219" fromLane="0" toLane="0"/>

    <connection from="gneE223" to="gneE219" fromLane="0" toLane="0"/>
    <connection from="gneE223" to="gneE220" fromLane="0" toLane="0"/>

    <connection from="gneE224" to="gneE226" fromLane="0" toLane="0"/>
    <connection from="gneE224" to="gneE226" fromLane="1" toLane="1"/>
    <connection from="gneE224" to="gneE230" fromLane="1" toLane="0"/>

    <connection from="gneE225" to="gneE213" fromLane="0" toLane="0"/>
    <connection from="gneE225" to="gneE213" fromLane="1" toLane="1"/>

    <connection from="gneE226" to="gneE228" fromLane="0" toLane="0"/>
    <connection from="gneE226" to="gneE228" fromLane="1" toLane="1"/>
    <connection from="gneE226" to="gneE232" fromLane="1" toLane="1"/>

    <connection from="gneE227" to="gneE230" fromLane="0" toLane="0"/>
    <connection from="gneE227" to="gneE225" fromLane="0" toLane="0"/>
    <connection from="gneE227" to="gneE225" fromLane="1" toLane="1"/>

    <connection from="gneE229" to="gneE232" fromLane="0" toLane="0"/>
    <connection from="gneE229" to="gneE227" fromLane="0" toLane="0"/>
    <connection from="gneE229" to="gneE227" fromLane="1" toLane="1"/>

    <connection from="gneE23" to="gneE178" fromLane="0" toLane="0"/>
    <connection from="gneE23" to="gneE21" fromLane="0" toLane="0"/>
    <connection from="gneE23" to="gneE21" fromLane="1" toLane="1"/>

    <connection from="gneE231" to="gneE225" fromLane="0" toLane="0"/>
    <connection from="gneE231" to="gneE226" fromLane="0" toLane="1"/>

    <connection from="gneE232" to="gneE238" fromLane="0" toLane="0"/>
    <connection from="gneE232" to="gneE234" fromLane="0" toLane="0"/>
    <connection from="gneE232" to="gneE234" fromLane="1" toLane="1"/>

    <connection from="gneE233" to="gneE227" fromLane="0" toLane="0"/>
    <connection from="gneE233" to="gneE228" fromLane="1" toLane="1"/>

    <connection from="gneE234" to="gneE236" fromLane="0" toLane="0"/>
    <connection from="gneE234" to="gneE240" fromLane="0" toLane="0"/>
    <connection from="gneE234" to="gneE240" fromLane="1" toLane="1"/>

    <connection from="gneE235" to="gneE233" fromLane="0" toLane="0"/>
    <connection from="gneE235" to="gneE233" fromLane="1" toLane="1"/>
    <connection from="gneE235" to="gneE238" fromLane="1" toLane="0"/>

    <connection from="gneE237" to="gneE240" fromLane="0" toLane="0"/>
    <connection from="gneE237" to="gneE235" fromLane="0" toLane="1"/>

    <connection from="gneE239" to="gneE234" fromLane="0" toLane="0"/>
    <connection from="gneE239" to="gneE233" fromLane="0" toLane="1"/>

    <connection from="gneE24" to="gneE26" fromLane="0" toLane="0"/>
    <connection from="gneE24" to="gneE26" fromLane="1" toLane="1"/>
    <connection from="gneE24" to="gneE546" fromLane="1" toLane="0"/>

    <connection from="gneE240" to="gneE246" fromLane="0" toLane="0"/>
    <connection from="gneE240" to="gneE242" fromLane="0" toLane="0"/>
    <connection from="gneE240" to="gneE242" fromLane="1" toLane="1"/>

    <connection from="gneE241" to="gneE235" fromLane="0" toLane="0"/>
    <connection from="gneE241" to="gneE235" fromLane="1" toLane="1"/>
    <connection from="gneE241" to="gneE236" fromLane="1" toLane="0"/>

    <connection from="gneE242" to="gneE244" fromLane="0" toLane="0"/>
    <connection from="gneE242" to="gneE244" fromLane="1" toLane="1"/>
    <connection from="gneE242" to="gneE571" fromLane="1" toLane="0"/>

    <connection from="gneE243" to="gneE241" fromLane="0" toLane="0"/>
    <connection from="gneE243" to="gneE241" fromLane="1" toLane="1"/>
    <connection from="gneE243" to="gneE246" fromLane="1" toLane="0"/>

    <connection from="gneE245" to="gneE571" fromLane="0" toLane="0"/>
    <connection from="gneE245" to="gneE243" fromLane="1" toLane="1"/>

    <connection from="gneE247" to="gneE242" fromLane="0" toLane="0"/>
    <connection from="gneE247" to="gneE241" fromLane="0" toLane="1"/>

    <connection from="gneE248" to="gneE250" fromLane="0" toLane="0"/>
    <connection from="gneE248" to="gneE250" fromLane="1" toLane="1"/>
    <connection from="gneE248" to="gneE491" fromLane="1" toLane="0"/>

    <connection from="gneE249" to="gneE484" fromLane="0" toLane="0"/>
    <connection from="gneE249" to="gneE481" fromLane="1" toLane="1"/>

    <connection from="gneE25" to="gneE23" fromLane="0" toLane="0"/>
    <connection from="gneE25" to="gneE23" fromLane="1" toLane="1"/>
    <connection from="gneE25" to="gneE544" fromLane="1" toLane="0"/>

    <connection from="gneE250" to="gneE613" fromLane="0" toLane="0"/>
    <connection from="gneE250" to="gneE254" fromLane="0" toLane="0"/>
    <connection from="gneE250" to="gneE254" fromLane="1" toLane="1"/>
    <connection from="gneE250" to="gneE495" fromLane="1" toLane="0"/>

    <connection from="gneE251" to="gneE491" fromLane="0" toLane="0"/>
    <connection from="gneE251" to="gneE249" fromLane="0" toLane="0"/>
    <connection from="gneE251" to="gneE249" fromLane="1" toLane="1"/>

    <connection from="gneE254" to="gneE37" fromLane="0" toLane="0"/>
    <connection from="gneE254" to="gneE256" fromLane="1" toLane="1"/>
    <connection from="gneE254" to="gneE38" fromLane="1" toLane="1"/>

    <connection from="gneE255" to="gneE495" fromLane="0" toLane="0"/>
    <connection from="gneE255" to="gneE251" fromLane="0" toLane="0"/>
    <connection from="gneE255" to="gneE251" fromLane="1" toLane="1"/>
    <connection from="gneE255" to="gneE613" fromLane="1" toLane="0"/>

    <connection from="gneE256" to="gneE535" fromLane="0" toLane="0"/>
    <connection from="gneE256" to="gneE638" fromLane="0" toLane="0"/>
    <connection from="gneE256" to="gneE638" fromLane="1" toLane="1"/>
    <connection from="gneE256" to="gneE519" fromLane="1" toLane="0"/>

    <connection from="gneE257" to="gneE38" fromLane="0" toLane="0"/>
    <connection from="gneE257" to="gneE255" fromLane="1" toLane="1"/>
    <connection from="gneE257" to="gneE37" fromLane="1" toLane="1"/>

    <connection from="gneE26" to="gneE548" fromLane="0" toLane="0"/>
    <connection from="gneE26" to="gneE28" fromLane="0" toLane="0"/>
    <connection from="gneE26" to="gneE28" fromLane="1" toLane="1"/>

    <connection from="gneE260" to="gneE262" fromLane="0" toLane="0"/>
    <connection from="gneE260" to="gneE262" fromLane="1" toLane="1"/>
    <connection from="gneE260" to="gneE529" fromLane="1" toLane="0"/>

    <connection from="gneE261" to="gneE524" fromLane="0" toLane="0"/>
    <connection from="gneE261" to="gneE641" fromLane="0" toLane="0"/>
    <connection from="gneE261" to="gneE641" fromLane="1" toLane="1"/>

    <connection from="gneE262" to="gneE264" fromLane="0" toLane="0"/>
    <connection from="gneE262" to="gneE264" fromLane="1" toLane="1"/>
    <connection from="gneE262" to="gneE619" fromLane="1" toLane="0"/>

    <connection from="gneE263" to="gneE529" fromLane="0" toLane="0"/>
    <connection from="gneE263" to="gneE261" fromLane="0" toLane="0"/>
    <connection from="gneE263" to="gneE261" fromLane="1" toLane="1"/>

    <connection from="gneE264" to="gneE647" fromLane="0" toLane="0"/>
    <connection from="gneE264" to="gneE266" fromLane="0" toLane="0"/>
    <connection from="gneE264" to="gneE266" fromLane="1" toLane="1"/>

    <connection from="gneE265" to="gneE619" fromLane="0" toLane="0"/>
    <connection from="gneE265" to="gneE263" fromLane="0" toLane="0"/>
    <connection from="gneE265" to="gneE263" fromLane="1" toLane="1"/>

    <connection from="gneE266" to="gneE268" fromLane="0" toLane="0"/>
    <connection from="gneE266" to="gneE268" fromLane="1" toLane="1"/>
    <connection from="gneE266" to="gneE562" fromLane="1" toLane="0"/>

    <connection from="gneE267" to="gneE265" fromLane="0" toLane="0"/>
    <connection from="gneE267" to="gneE265" fromLane="1" toLane="1"/>
    <connection from="gneE267" to="gneE647" fromLane="1" toLane="0"/>

    <connection from="gneE268" to="gneE572" fromLane="0" toLane="0"/>
    <connection from="gneE268" to="gneE270" fromLane="0" toLane="0"/>
    <connection from="gneE268" to="gneE270" fromLane="1" toLane="1"/>

    <connection from="gneE269" to="gneE562" fromLane="0" toLane="0"/>
    <connection from="gneE269" to="gneE267" fromLane="0" toLane="0"/>
    <connection from="gneE269" to="gneE267" fromLane="1" toLane="1"/>

    <connection from="gneE27" to="gneE546" fromLane="0" toLane="0"/>
    <connection from="gneE27" to="gneE25" fromLane="0" toLane="0"/>
    <connection from="gneE27" to="gneE25" fromLane="1" toLane="1"/>

    <connection from="gneE270" to="gneE207" fromLane="0" toLane="0"/>
    <connection from="gneE270" to="gneE272" fromLane="1" toLane="1"/>
    <connection from="gneE270" to="gneE208" fromLane="1" toLane="1"/>

    <connection from="gneE271" to="gneE269" fromLane="0" toLane="0"/>
    <connection from="gneE271" to="gneE269" fromLane="1" toLane="1"/>
    <connection from="gneE271" to="gneE572" fromLane="1" toLane="0"/>

    <connection from="gneE272" to="gneE389" fromLane="0" toLane="0"/>
    <connection from="gneE272" to="gneE274" fromLane="1" toLane="1"/>
    <connection from="gneE272" to="gneE296" fromLane="1" toLane="1"/>

    <connection from="gneE273" to="gneE208" fromLane="0" toLane="0"/>
    <connection from="gneE273" to="gneE271" fromLane="1" toLane="1"/>
    <connection from="gneE273" to="gneE207" fromLane="1" toLane="1"/>

    <connection from="gneE274" to="gneE276" fromLane="0" toLane="0"/>
    <connection from="gneE274" to="gneE276" fromLane="1" toLane="1"/>
    <connection from="gneE274" to="gneE642" fromLane="1" toLane="0"/>

    <connection from="gneE275" to="gneE296" fromLane="0" toLane="0"/>
    <connection from="gneE275" to="gneE273" fromLane="1" toLane="1"/>
    <connection from="gneE275" to="gneE389" fromLane="1" toLane="1"/>

    <connection from="gneE276" to="gneE278" fromLane="0" toLane="0"/>
    <connection from="gneE276" to="gneE278" fromLane="1" toLane="1"/>
    <connection from="gneE276" to="gneE421" fromLane="1" toLane="0"/>

    <connection from="gneE277" to="gneE642" fromLane="0" toLane="0"/>
    <connection from="gneE277" to="gneE275" fromLane="0" toLane="0"/>